data_nu1000_modified

_cell_length_a  39.97000000
_cell_length_b  40.00000000
_cell_length_c  33.16000000
_cell_angle_alpha  90.00000000
_cell_angle_beta   90.00000000
_cell_angle_gamma  120.00000000


_symmetry_space_group_name_Hall ' P 1'
_symmetry_space_group_name_H-M  'P 1'
_symmetry_Int_Tables_number     1

loop_
_atom_site_label
_atom_site_type_symbol
_atom_site_forcefield_label
_atom_site_fract_x
_atom_site_fract_y
_atom_site_fract_z
_atom_site_charge
C1       C   C      0.35550000  0.51936000  0.08636000  0.00000000
C2       C   C      0.36579000  0.49095000  0.09219500  0.00000000
C3       C   C      0.34641000  0.46237000  0.12150500  0.00000000
C4       C   C      0.31768000  0.46256000  0.14502000  0.00000000
C5       C   C      0.30746000  0.49121000  0.13971500  0.00000000
C6       C   C      0.32661000  0.51937000  0.10974500  0.00000000
C7       C   C      0.34513000  0.46045000  0.37891000  0.00000000
C8       C   C      0.36318000  0.48763000  0.40980000  0.00000000
C9       C   C      0.35244000  0.51565000  0.41629000  0.00000000
C10      C   C      0.32437000  0.51653000  0.39225500  0.00000000
C11      C   C      0.30644000  0.48972000  0.36082000  0.00000000
C12      C   C      0.31719000  0.46153000  0.35476500  0.00000000
C13      C   C      0.11558000  0.46300000  0.37763000  0.00000000
C14      C   C      0.12498000  0.49025000  0.40847500  0.00000000
C15      C   C      0.16389000  0.51754000  0.41546500  0.00000000
C16      C   C      0.19273000  0.51760000  0.39195000  0.00000000
C17      C   C      0.18357000  0.49070000  0.36055500  0.00000000
C18      C   C      0.14446000  0.46321000  0.35402000  0.00000000
C19      C   C      0.11554000  0.46016000  0.12081500  0.00000000
C20      C   C      0.12454000  0.48768000  0.09032500  0.00000000
C21      C   C      0.16323000  0.51612000  0.08416500  0.00000000
C22      C   C      0.19226000  0.51709000  0.10813000  0.00000000
C23      C   C      0.18348000  0.48995000  0.13919500  0.00000000
C24      C   C      0.14462000  0.46134000  0.14493000  0.00000000
C25      C   C      0.27609000  0.49082000  0.33618500  0.00000000
C26      C   C      0.27651000  0.49090000  0.29332500  0.00000000
C27      C   C      0.30816000  0.49341000  0.27073000  0.00000000
C28      C   C      0.24569000  0.49152000  0.35631000  0.00000000
C29      C   C      0.24532000  0.49069000  0.27169000  0.00000000
C30      C   C      0.21491000  0.49111000  0.16388000  0.00000000
C31      C   C      0.21445000  0.49104000  0.20672000  0.00000000
C32      C   C      0.18533000  0.49359000  0.22931500  0.00000000
C33      C   C      0.24613000  0.49203000  0.14376000  0.00000000
C34      C   C      0.24536000  0.49074000  0.22841000  0.00000000
C35      C   C      0.27654000  0.49153000  0.16401500  0.00000000
C36      C   C      0.27669000  0.49119000  0.20686000  0.00000000
C37      C   C      0.30825000  0.49357000  0.22953500  0.00000000
C38      C   C      0.21479000  0.49117000  0.33611000  0.00000000
C39      C   C      0.21442000  0.49111000  0.29324000  0.00000000
C40      C   C      0.18538000  0.49372000  0.27051500  0.00000000
C41      C   C      0.53832000  0.88426000  0.12249000  0.00000000
C42      C   C      0.51093000  0.87511000  0.09180500  0.00000000
C43      C   C      0.48357000  0.83626000  0.08465000  0.00000000
C44      C   C      0.48340000  0.80723000  0.10792500  0.00000000
C45      C   C      0.51029000  0.81614000  0.13929500  0.00000000
C46      C   C      0.53795000  0.85519000  0.14588500  0.00000000
C47      C   C      0.53815000  0.88375000  0.37946500  0.00000000
C48      C   C      0.51023000  0.87426000  0.40965000  0.00000000
C49      C   C      0.48196000  0.83547000  0.41536000  0.00000000
C50      C   C      0.48163000  0.80680000  0.39132000  0.00000000
C51      C   C      0.50925000  0.81607000  0.36063000  0.00000000
C52      C   C      0.53758000  0.85507000  0.35522000  0.00000000
C53      C   C      0.53740000  0.65271000  0.37812000  0.00000000
C54      C   C      0.51001000  0.63462000  0.40883000  0.00000000
C55      C   C      0.48279000  0.64631000  0.41599000  0.00000000
C56      C   C      0.48266000  0.67509000  0.39253500  0.00000000
C57      C   C      0.50944000  0.69284000  0.36098000  0.00000000
C58      C   C      0.53707000  0.68134000  0.35454000  0.00000000
C59      C   C      0.53938000  0.65369000  0.12140000  0.00000000
C60      C   C      0.51203000  0.63562000  0.09068000  0.00000000
C61      C   C      0.48427000  0.64669000  0.08408500  0.00000000
C62      C   C      0.48371000  0.67500000  0.10794000  0.00000000
C63      C   C      0.51055000  0.69282000  0.13938000  0.00000000
C64      C   C      0.53852000  0.68175000  0.14548500  0.00000000
C65      C   C      0.50878000  0.78488000  0.33608000  0.00000000
C66      C   C      0.50909000  0.78528000  0.29319000  0.00000000
C67      C   C      0.50662000  0.81431000  0.27041500  0.00000000
C68      C   C      0.50811000  0.75387000  0.35632000  0.00000000
C69      C   C      0.50954000  0.75437000  0.27168000  0.00000000
C70      C   C      0.50961000  0.72337000  0.16387500  0.00000000
C71      C   C      0.50937000  0.72306000  0.20679500  0.00000000
C72      C   C      0.50646000  0.69136000  0.22954500  0.00000000
C73      C   C      0.50911000  0.75383000  0.14364500  0.00000000
C74      C   C      0.50973000  0.75435000  0.22834500  0.00000000
C75      C   C      0.50954000  0.78480000  0.16373500  0.00000000
C76      C   C      0.50943000  0.78522000  0.20664500  0.00000000
C77      C   C      0.50674000  0.81423000  0.22919000  0.00000000
C78      C   C      0.50878000  0.72340000  0.33632000  0.00000000
C79      C   C      0.50895000  0.72305000  0.29340000  0.00000000
C80      C   C      0.50622000  0.69133000  0.27079000  0.00000000
C81      C   C      0.11557000  0.65233000  0.12239500  0.00000000
C82      C   C      0.12500000  0.63461000  0.09143000  0.00000000
C83      C   C      0.16393000  0.64637000  0.08429500  0.00000000
C84      C   C      0.19275000  0.67512000  0.10783000  0.00000000
C85      C   C      0.18355000  0.69268000  0.13940000  0.00000000
C86      C   C      0.14443000  0.68094000  0.14603500  0.00000000
C87      C   C      0.11547000  0.65440000  0.37890500  0.00000000
C88      C   C      0.12470000  0.63635000  0.40972500  0.00000000
C89      C   C      0.16351000  0.64719000  0.41614500  0.00000000
C90      C   C      0.19242000  0.67536000  0.39216500  0.00000000
C91      C   C      0.18346000  0.69332000  0.36082500  0.00000000
C92      C   C      0.14444000  0.68244000  0.35482000  0.00000000
C93      C   C      0.34675000  0.88429000  0.37766000  0.00000000
C94      C   C      0.36592000  0.87516000  0.40731000  0.00000000
C95      C   C      0.35525000  0.83642000  0.41363500  0.00000000
C96      C   C      0.32627000  0.80744000  0.39042000  0.00000000
C97      C   C      0.30730000  0.81636000  0.36015500  0.00000000
C98      C   C      0.31783000  0.85527000  0.35441000  0.00000000
C99      C   C      0.34459000  0.88397000  0.11996000  0.00000000
C100     C   C      0.36364000  0.87469000  0.09030500  0.00000000
C101     C   C      0.35354000  0.83603000  0.08475000  0.00000000
C102     C   C      0.32520000  0.80725000  0.10869500  0.00000000
C103     C   C      0.30645000  0.81631000  0.13909000  0.00000000
C104     C   C      0.31646000  0.85516000  0.14412500  0.00000000
C105     C   C      0.21483000  0.72374000  0.33616500  0.00000000
C106     C   C      0.21439000  0.72335000  0.29329000  0.00000000
C107     C   C      0.18535000  0.69164000  0.27071000  0.00000000
C108     C   C      0.24601000  0.75411000  0.35624000  0.00000000
C109     C   C      0.24526000  0.75456000  0.27157500  0.00000000
C110     C   C      0.27598000  0.78502000  0.16375500  0.00000000
C111     C   C      0.27634000  0.78548000  0.20661000  0.00000000
C112     C   C      0.30794000  0.81469000  0.22915000  0.00000000
C113     C   C      0.24566000  0.75390000  0.14364500  0.00000000
C114     C   C      0.24518000  0.75452000  0.22828500  0.00000000
C115     C   C      0.21474000  0.72341000  0.16387000  0.00000000
C116     C   C      0.21434000  0.72314000  0.20674500  0.00000000
C117     C   C      0.18540000  0.69150000  0.22950500  0.00000000
C118     C   C      0.27639000  0.78505000  0.33595500  0.00000000
C119     C   C      0.27657000  0.78547000  0.29309500  0.00000000
C120     C   C      0.30807000  0.81464000  0.27036000  0.00000000
C121     C   C      0.65171000  0.53574000  0.12351000  0.00000000
C122     C   C      0.63152000  0.50711000  0.09449500  0.00000000
C123     C   C      0.64115000  0.47825000  0.08835500  0.00000000
C124     C   C      0.67024000  0.47791000  0.11108500  0.00000000
C125     C   C      0.69033000  0.50621000  0.14064500  0.00000000
C126     C   C      0.68065000  0.53521000  0.14636000  0.00000000
C127     C   C      0.65070000  0.53291000  0.37627500  0.00000000
C128     C   C      0.63124000  0.50468000  0.40592000  0.00000000
C129     C   C      0.64264000  0.47734000  0.41352000  0.00000000
C130     C   C      0.67225000  0.47763000  0.39112000  0.00000000
C131     C   C      0.69132000  0.50523000  0.36063000  0.00000000
C132     C   C      0.68039000  0.53324000  0.35406000  0.00000000
C133     C   C      0.88365000  0.53558000  0.37648000  0.00000000
C134     C   C      0.87529000  0.50704000  0.40559500  0.00000000
C135     C   C      0.83686000  0.47795000  0.41159000  0.00000000
C136     C   C      0.80739000  0.47731000  0.38868500  0.00000000
C137     C   C      0.81549000  0.50558000  0.35917000  0.00000000
C138     C   C      0.85413000  0.53480000  0.35350000  0.00000000
C139     C   C      0.88262000  0.53410000  0.12425500  0.00000000
C140     C   C      0.87416000  0.50601000  0.09458500  0.00000000
C141     C   C      0.83548000  0.47840000  0.08685500  0.00000000
C142     C   C      0.80594000  0.47842000  0.10905000  0.00000000
C143     C   C      0.81418000  0.50589000  0.13960000  0.00000000
C144     C   C      0.85304000  0.53403000  0.14641000  0.00000000
C145     C   C      0.72218000  0.50469000  0.33639000  0.00000000
C146     C   C      0.72161000  0.50492000  0.29354000  0.00000000
C147     C   C      0.68981000  0.50241000  0.27118500  0.00000000
C148     C   C      0.75274000  0.50402000  0.35622500  0.00000000
C149     C   C      0.75272000  0.50535000  0.27159500  0.00000000
C150     C   C      0.78258000  0.50512000  0.16366500  0.00000000
C151     C   C      0.78313000  0.50494000  0.20649000  0.00000000
C152     C   C      0.81214000  0.50191000  0.22878500  0.00000000
C153     C   C      0.75155000  0.50475000  0.14374500  0.00000000
C154     C   C      0.75249000  0.50548000  0.22837000  0.00000000
C155     C   C      0.72135000  0.50545000  0.16432500  0.00000000
C156     C   C      0.72123000  0.50538000  0.20712500  0.00000000
C157     C   C      0.68968000  0.50274000  0.23003500  0.00000000
C158     C   C      0.78362000  0.50477000  0.33560000  0.00000000
C159     C   C      0.78370000  0.50487000  0.29281000  0.00000000
C160     C   C      0.81249000  0.50198000  0.26993500  0.00000000
C161     C   C      0.46431000  0.11630000  0.12418000  0.00000000
C162     C   C      0.49228000  0.12464000  0.09431500  0.00000000
C163     C   C      0.52083000  0.16317000  0.08763500  0.00000000
C164     C   C      0.52145000  0.19267000  0.11047000  0.00000000
C165     C   C      0.49375000  0.18454000  0.14072500  0.00000000
C166     C   C      0.46506000  0.14583000  0.14705000  0.00000000
C167     C   C      0.46472000  0.11608000  0.37575000  0.00000000
C168     C   C      0.49210000  0.12461000  0.40629500  0.00000000
C169     C   C      0.51939000  0.16327000  0.41441000  0.00000000
C170     C   C      0.51964000  0.19277000  0.39196500  0.00000000
C171     C   C      0.49287000  0.18449000  0.36064000  0.00000000
C172     C   C      0.46511000  0.14563000  0.35326000  0.00000000
C173     C   C      0.46405000  0.34755000  0.37636000  0.00000000
C174     C   C      0.49220000  0.36730000  0.40596500  0.00000000
C175     C   C      0.52069000  0.35726000  0.41280500  0.00000000
C176     C   C      0.52115000  0.32820000  0.39019500  0.00000000
C177     C   C      0.49336000  0.30858000  0.36005500  0.00000000
C178     C   C      0.46468000  0.31863000  0.35366000  0.00000000
C179     C   C      0.46478000  0.34818000  0.12558500  0.00000000
C180     C   C      0.49193000  0.36695000  0.09483500  0.00000000
C181     C   C      0.51959000  0.35601000  0.08686000  0.00000000
C182     C   C      0.52025000  0.32700000  0.10937500  0.00000000
C183     C   C      0.49344000  0.30828000  0.14058500  0.00000000
C184     C   C      0.46553000  0.31920000  0.14805000  0.00000000
C185     C   C      0.49399000  0.21619000  0.33658000  0.00000000
C186     C   C      0.49449000  0.21598000  0.29376500  0.00000000
C187     C   C      0.49752000  0.18711000  0.27122000  0.00000000
C188     C   C      0.49444000  0.24717000  0.35670000  0.00000000
C189     C   C      0.49431000  0.24688000  0.27210000  0.00000000
C190     C   C      0.49457000  0.27759000  0.16443500  0.00000000
C191     C   C      0.49495000  0.27817000  0.20724500  0.00000000
C192     C   C      0.49807000  0.31011000  0.22979500  0.00000000
C193     C   C      0.49501000  0.24709000  0.14425000  0.00000000
C194     C   C      0.49447000  0.24692000  0.22888000  0.00000000
C195     C   C      0.49460000  0.21624000  0.16456000  0.00000000
C196     C   C      0.49477000  0.21601000  0.20736500  0.00000000
C197     C   C      0.49762000  0.18711000  0.23006500  0.00000000
C198     C   C      0.49421000  0.27767000  0.33634500  0.00000000
C199     C   C      0.49462000  0.27812000  0.29356000  0.00000000
C200     C   C      0.49786000  0.31005000  0.27093500  0.00000000
C201     C   C      0.88369000  0.34791000  0.12338000  0.00000000
C202     C   C      0.87524000  0.36824000  0.09452500  0.00000000
C203     C   C      0.83679000  0.35899000  0.08880000  0.00000000
C204     C   C      0.80738000  0.33003000  0.11164500  0.00000000
C205     C   C      0.81557000  0.30965000  0.14085500  0.00000000
C206     C   C      0.85423000  0.31904000  0.14627500  0.00000000
C207     C   C      0.88308000  0.34809000  0.37659000  0.00000000
C208     C   C      0.87450000  0.36816000  0.40563500  0.00000000
C209     C   C      0.83584000  0.35753000  0.41276000  0.00000000
C210     C   C      0.80640000  0.32796000  0.39049000  0.00000000
C211     C   C      0.81478000  0.30835000  0.36052000  0.00000000
C212     C   C      0.85360000  0.31859000  0.35435000  0.00000000
C213     C   C      0.65177000  0.11597000  0.37572500  0.00000000
C214     C   C      0.63227000  0.12424000  0.40577000  0.00000000
C215     C   C      0.64242000  0.16276000  0.41276000  0.00000000
C216     C   C      0.67141000  0.19235000  0.39013000  0.00000000
C217     C   C      0.69088000  0.18432000  0.35968500  0.00000000
C218     C   C      0.68064000  0.14559000  0.35302000  0.00000000
C219     C   C      0.65133000  0.11726000  0.12451000  0.00000000
C220     C   C      0.63153000  0.12557000  0.09486000  0.00000000
C221     C   C      0.64239000  0.16420000  0.08724500  0.00000000
C222     C   C      0.67191000  0.19380000  0.10945000  0.00000000
C223     C   C      0.69133000  0.18571000  0.13992500  0.00000000
C224     C   C      0.68079000  0.14689000  0.14667500  0.00000000
C225     C   C      0.78322000  0.27746000  0.33651000  0.00000000
C226     C   C      0.78376000  0.27805000  0.29368500  0.00000000
C227     C   C      0.81296000  0.30986000  0.27129500  0.00000000
C228     C   C      0.75216000  0.24695000  0.35650000  0.00000000
C229     C   C      0.75294000  0.24701000  0.27186500  0.00000000
C230     C   C      0.72225000  0.21736000  0.16393000  0.00000000
C231     C   C      0.72177000  0.21674000  0.20678000  0.00000000
C232     C   C      0.68986000  0.18773000  0.22920500  0.00000000
C233     C   C      0.75280000  0.24847000  0.14397500  0.00000000
C234     C   C      0.75304000  0.24731000  0.22862500  0.00000000
C235     C   C      0.78382000  0.27857000  0.16451000  0.00000000
C236     C   C      0.78408000  0.27860000  0.20729500  0.00000000
C237     C   C      0.81316000  0.31008000  0.23014500  0.00000000
C238     C   C      0.72181000  0.21613000  0.33601500  0.00000000
C239     C   C      0.72157000  0.21609000  0.29320500  0.00000000
C240     C   C      0.68978000  0.18742000  0.27036000  0.00000000
C241     C   C      0.09391000  0.49097000  0.43277500  0.00000000
C242     C   C      0.09370000  0.60506000  0.43463000  0.00000000
C243     C   C      0.09392000  0.60272000  0.06731000  0.00000000
C244     C   C      0.90587000  0.50535000  0.07142000  0.00000000
C245     C   C      0.90662000  0.39925000  0.06982000  0.00000000
C246     C   C      0.90609000  0.40057000  0.42876500  0.00000000
C247     C   C      0.09342000  0.48792000  0.06556500  0.00000000
C248     C   C      0.90673000  0.50744000  0.43026000  0.00000000
C249     C   C      0.50888000  0.60231000  0.43268500  0.00000000
C250     C   C      0.39446000  0.48785000  0.43467000  0.00000000
C251     C   C      0.39787000  0.49181000  0.06838000  0.00000000
C252     C   C      0.49174000  0.39843000  0.07081500  0.00000000
C253     C   C      0.60012000  0.50708000  0.07013000  0.00000000
C254     C   C      0.59865000  0.50374000  0.42901500  0.00000000
C255     C   C      0.51155000  0.60419000  0.06588000  0.00000000
C256     C   C      0.49187000  0.39849000  0.43028500  0.00000000
C257     C   C      0.39802000  0.90632000  0.43126000  0.00000000
C258     C   C      0.51003000  0.90526000  0.43468000  0.00000000
C259     C   C      0.50992000  0.90619000  0.06775000  0.00000000
C260     C   C      0.59932000  0.09378000  0.07158500  0.00000000
C261     C   C      0.49177000  0.09316000  0.06962000  0.00000000
C262     C   C      0.49256000  0.09299000  0.42977000  0.00000000
C263     C   C      0.39536000  0.90575000  0.06583000  0.00000000
C264     C   C      0.60129000  0.09277000  0.43044500  0.00000000
H1       H   H      0.37084000  0.54150000  0.06359000  0.00000000
H2       H   H      0.35420000  0.44006000  0.12538000  0.00000000
H3       H   H      0.30242000  0.44002000  0.16749000  0.00000000
H4       H   H      0.31905000  0.54184000  0.10553000  0.00000000
H5       H   H      0.35348000  0.43865000  0.37407500  0.00000000
H6       H   H      0.36680000  0.53682000  0.44016500  0.00000000
H7       H   H      0.31653000  0.53873000  0.39715000  0.00000000
H8       H   H      0.30296000  0.43996000  0.33116500  0.00000000
H9       H   H      0.08529000  0.44184000  0.37236500  0.00000000
H10      H   H      0.17095000  0.53878000  0.43931000  0.00000000
H11      H   H      0.22291000  0.53926000  0.39716000  0.00000000
H12      H   H      0.13687000  0.44159000  0.33043500  0.00000000
H13      H   H      0.08546000  0.43805000  0.12539500  0.00000000
H14      H   H      0.16991000  0.53759000  0.06065500  0.00000000
H15      H   H      0.22222000  0.53964000  0.10356500  0.00000000
H16      H   H      0.13742000  0.43959000  0.16830000  0.00000000
H17      H   H      0.24521000  0.49062000  0.38921000  0.00000000
H18      H   H      0.16321000  0.49647000  0.21308000  0.00000000
H19      H   H      0.33312000  0.49618000  0.28695000  0.00000000
H20      H   H      0.24589000  0.49142000  0.11086000  0.00000000
H21      H   H      0.16333000  0.49680000  0.28662000  0.00000000
H22      H   H      0.33328000  0.49647000  0.21334500  0.00000000
H23      H   H      0.55960000  0.91446000  0.12792000  0.00000000
H24      H   H      0.46230000  0.82940000  0.06085500  0.00000000
H25      H   H      0.46164000  0.77713000  0.10255000  0.00000000
H26      H   H      0.55960000  0.86256000  0.16941500  0.00000000
H27      H   H      0.56021000  0.91393000  0.37553000  0.00000000
H28      H   H      0.46024000  0.82837000  0.43872000  0.00000000
H29      H   H      0.45930000  0.77672000  0.39559000  0.00000000
H30      H   H      0.55971000  0.86267000  0.33217000  0.00000000
H31      H   H      0.55867000  0.64371000  0.37298500  0.00000000
H32      H   H      0.46148000  0.63199000  0.43977500  0.00000000
H33      H   H      0.46088000  0.68344000  0.39779000  0.00000000
H34      H   H      0.55867000  0.69543000  0.33093000  0.00000000
H35      H   H      0.56138000  0.64554000  0.12581500  0.00000000
H36      H   H      0.46305000  0.63249000  0.06019500  0.00000000
H37      H   H      0.46177000  0.68317000  0.10288500  0.00000000
H38      H   H      0.56028000  0.69604000  0.16890500  0.00000000
H39      H   H      0.50871000  0.75430000  0.38923000  0.00000000
H40      H   H      0.50346000  0.66630000  0.21339000  0.00000000
H41      H   H      0.50362000  0.83641000  0.28649000  0.00000000
H42      H   H      0.51024000  0.75428000  0.11075500  0.00000000
H43      H   H      0.50294000  0.66617000  0.28699000  0.00000000
H44      H   H      0.50374000  0.83624000  0.21293000  0.00000000
H45      H   H      0.08525000  0.64307000  0.12774500  0.00000000
H46      H   H      0.17100000  0.63229000  0.06032500  0.00000000
H47      H   H      0.22295000  0.68376000  0.10248000  0.00000000
H48      H   H      0.13681000  0.69486000  0.16972500  0.00000000
H49      H   H      0.08529000  0.64600000  0.37411500  0.00000000
H50      H   H      0.17042000  0.63283000  0.43993500  0.00000000
H51      H   H      0.22249000  0.68325000  0.39703000  0.00000000
H52      H   H      0.13698000  0.69660000  0.33124500  0.00000000
H53      H   H      0.35473000  0.91440000  0.37342500  0.00000000
H54      H   H      0.37036000  0.82965000  0.43671500  0.00000000
H55      H   H      0.31847000  0.77740000  0.39505500  0.00000000
H56      H   H      0.30268000  0.86253000  0.33178000  0.00000000
H57      H   H      0.35228000  0.91406000  0.12365000  0.00000000
H58      H   H      0.36860000  0.82915000  0.06170500  0.00000000
H59      H   H      0.31783000  0.77726000  0.10462000  0.00000000
H60      H   H      0.30146000  0.86253000  0.16682500  0.00000000
H61      H   H      0.24575000  0.75456000  0.38914000  0.00000000
H62      H   H      0.33281000  0.83691000  0.21286000  0.00000000
H63      H   H      0.16330000  0.66662000  0.28694000  0.00000000
H64      H   H      0.24526000  0.75425000  0.11075000  0.00000000
H65      H   H      0.33309000  0.83682000  0.28649500  0.00000000
H66      H   H      0.16341000  0.66633000  0.21343500  0.00000000
H67      H   H      0.64458000  0.55851000  0.12756500  0.00000000
H68      H   H      0.62525000  0.45612000  0.06572500  0.00000000
H69      H   H      0.67729000  0.45511000  0.10655500  0.00000000
H70      H   H      0.69650000  0.55777000  0.16862000  0.00000000
H71      H   H      0.64213000  0.55449000  0.37103000  0.00000000
H72      H   H      0.62749000  0.45561000  0.43672000  0.00000000
H73      H   H      0.68032000  0.45567000  0.39645000  0.00000000
H74      H   H      0.69563000  0.55550000  0.33134000  0.00000000
H75      H   H      0.91349000  0.55850000  0.37250500  0.00000000
H76      H   H      0.83072000  0.45591000  0.43428000  0.00000000
H77      H   H      0.77758000  0.45433000  0.39309000  0.00000000
H78      H   H      0.86074000  0.55735000  0.33124000  0.00000000
H79      H   H      0.91268000  0.55597000  0.12947000  0.00000000
H80      H   H      0.82919000  0.45681000  0.06358000  0.00000000
H81      H   H      0.77595000  0.45639000  0.10348000  0.00000000
H82      H   H      0.85985000  0.55619000  0.16920000  0.00000000
H83      H   H      0.75337000  0.50461000  0.38914000  0.00000000
H84      H   H      0.83389000  0.49860000  0.21233500  0.00000000
H85      H   H      0.66479000  0.49927000  0.28756500  0.00000000
H86      H   H      0.75172000  0.50559000  0.11084000  0.00000000
H87      H   H      0.83453000  0.49880000  0.28594000  0.00000000
H88      H   H      0.66461000  0.49996000  0.21403500  0.00000000
H89      H   H      0.44186000  0.08639000  0.12897000  0.00000000
H90      H   H      0.54250000  0.16937000  0.06446500  0.00000000
H91      H   H      0.54404000  0.22252000  0.10549000  0.00000000
H92      H   H      0.44293000  0.13912000  0.16986000  0.00000000
H93      H   H      0.44351000  0.08597000  0.36975000  0.00000000
H94      H   H      0.54055000  0.16957000  0.43818500  0.00000000
H95      H   H      0.54140000  0.22276000  0.39790000  0.00000000
H96      H   H      0.44358000  0.13880000  0.32973000  0.00000000
H97      H   H      0.44154000  0.35498000  0.37176000  0.00000000
H98      H   H      0.54244000  0.37282000  0.43586500  0.00000000
H99      H   H      0.54369000  0.32084000  0.39519000  0.00000000
H100     H   H      0.44245000  0.30305000  0.33098000  0.00000000
H101     H   H      0.44338000  0.35684000  0.13159000  0.00000000
H102     H   H      0.54067000  0.37094000  0.06304000  0.00000000
H103     H   H      0.54223000  0.31905000  0.10349000  0.00000000
H104     H   H      0.44408000  0.30439000  0.17163000  0.00000000
H105     H   H      0.49327000  0.24668000  0.38958500  0.00000000
H106     H   H      0.50153000  0.33531000  0.21358000  0.00000000
H107     H   H      0.50073000  0.16522000  0.28744500  0.00000000
H108     H   H      0.49394000  0.24651000  0.11135500  0.00000000
H109     H   H      0.50113000  0.33520000  0.28715000  0.00000000
H110     H   H      0.50087000  0.16518000  0.21392000  0.00000000
H111     H   H      0.91354000  0.35476000  0.12717500  0.00000000
H112     H   H      0.83058000  0.37504000  0.06636000  0.00000000
H113     H   H      0.77755000  0.32325000  0.10742500  0.00000000
H114     H   H      0.86089000  0.30291000  0.16825000  0.00000000
H115     H   H      0.91311000  0.35594000  0.37189000  0.00000000
H116     H   H      0.82949000  0.37317000  0.43558000  0.00000000
H117     H   H      0.77642000  0.32032000  0.39551500  0.00000000
H118     H   H      0.86041000  0.30285000  0.33203500  0.00000000
H119     H   H      0.64421000  0.08606000  0.37073000  0.00000000
H120     H   H      0.62701000  0.16889000  0.43606000  0.00000000
H121     H   H      0.67880000  0.22221000  0.39536000  0.00000000
H122     H   H      0.69602000  0.13897000  0.33008500  0.00000000
H123     H   H      0.64338000  0.08728000  0.12968500  0.00000000
H124     H   H      0.62696000  0.17043000  0.06406500  0.00000000
H125     H   H      0.67966000  0.22372000  0.10391500  0.00000000
H126     H   H      0.69628000  0.14017000  0.16937000  0.00000000
H127     H   H      0.75242000  0.24636000  0.38941000  0.00000000
H128     H   H      0.66470000  0.16599000  0.21289500  0.00000000
H129     H   H      0.83499000  0.33476000  0.28768000  0.00000000
H130     H   H      0.75330000  0.24844000  0.11105500  0.00000000
H131     H   H      0.66456000  0.16543000  0.28641000  0.00000000
H132     H   H      0.83537000  0.33514000  0.21409000  0.00000000
H133     H   H      0.94362000  0.40041000  0.49810500  0.00000000
H134     H   H      0.05629000  0.52974000  0.41365000  0.00000000
H135     H   H      0.02702000  0.61924000  0.05044500  0.00000000
H136     H   H      0.00137000  0.60164000  0.00937000  0.00000000
H137     H   H      0.02100000  0.39965000  0.04715000  0.00000000
H138     H   H      0.99884000  0.49182000  0.12214500  0.00000000
H139     H   H      0.97861000  0.52857000  0.13327000  0.00000000
H140     H   H      0.97337000  0.44502000  0.12792000  0.00000000
H141     H   H      0.94369000  0.54322000  0.00207500  0.00000000
H142     H   H      0.05617000  0.52620000  0.08667000  0.00000000
H143     H   H      0.02153000  0.62132000  0.45319000  0.00000000
H144     H   H      0.00117000  0.39947000  0.49082000  0.00000000
H145     H   H      0.02699000  0.40760000  0.44987500  0.00000000
H146     H   H      0.97358000  0.52838000  0.37227500  0.00000000
H147     H   H      0.97874000  0.45007000  0.36684000  0.00000000
H148     H   H      0.99898000  0.50691000  0.37809000  0.00000000
H149     H   H      0.59776000  0.53908000  0.49905000  0.00000000
H150     H   H      0.46984000  0.52623000  0.41435500  0.00000000
H151     H   H      0.39741000  0.39856000  0.00897000  0.00000000
H152     H   H      0.39972000  0.37782000  0.05113500  0.00000000
H153     H   H      0.50588000  0.50424000  0.12234000  0.00000000
H154     H   H      0.44862000  0.47099000  0.13467000  0.00000000
H155     H   H      0.55259000  0.52565000  0.12923500  0.00000000
H156     H   H      0.45717000  0.40049000  0.00090000  0.00000000
H157     H   H      0.47436000  0.53107000  0.08513000  0.00000000
H158     H   H      0.37786000  0.39983000  0.45457500  0.00000000
H159     H   H      0.47099000  0.44465000  0.37227000  0.00000000
H160     H   H      0.54918000  0.52739000  0.36686000  0.00000000
H161     H   H      0.49258000  0.49151000  0.37829500  0.00000000
H162     H   H      0.45866000  0.05649000  0.49807500  0.00000000
H163     H   H      0.47353000  0.94242000  0.41536500  0.00000000
H164     H   H      0.59278000  0.97274000  0.04861500  0.00000000
H165     H   H      0.60077000  0.99867000  0.00809500  0.00000000
H166     H   H      0.39839000  0.02142000  0.04824500  0.00000000
H167     H   H      0.49353000  0.00131000  0.12184500  0.00000000
H168     H   H      0.55008000  0.02102000  0.13346500  0.00000000
H169     H   H      0.47279000  0.02743000  0.12734000  0.00000000
H170     H   H      0.59849000  0.05673000  0.00284000  0.00000000
H171     H   H      0.47002000  0.94303000  0.08596000  0.00000000
H172     H   H      0.62295000  0.02208000  0.45256500  0.00000000
H173     H   H      0.39994000  0.02124000  0.44895000  0.00000000
H174     H   H      0.39729000  0.99874000  0.49094500  0.00000000
H175     H   H      0.55416000  0.02664000  0.37194500  0.00000000
H176     H   H      0.45054000  0.97854000  0.36517500  0.00000000
H177     H   H      0.50736000  0.00137000  0.37825500  0.00000000
Zr1      Zr  Zr     0.92780000  0.46390000  0.00006500  0.00000000
Zr2      Zr  Zr     0.00081000  0.54722000  0.44870500  0.00000000
Zr3      Zr  Zr     0.99950000  0.54226000  0.05655500  0.00000000
Zr4      Zr  Zr     0.00065000  0.45335000  0.05149500  0.00000000
Zr5      Zr  Zr     0.07264000  0.53613000  0.00016000  0.00000000
Zr6      Zr  Zr     0.99956000  0.45713000  0.44363000  0.00000000
Zr7      Zr  Zr     0.53486000  0.46294000  0.00039500  0.00000000
Zr8      Zr  Zr     0.45234000  0.45311000  0.44872000  0.00000000
Zr9      Zr  Zr     0.45589000  0.45617000  0.05672500  0.00000000
Z0       Zr  Zr     0.54542000  0.54571000  0.05188500  0.00000000
Zr11     Zr  Zr     0.46370000  0.53610000  0.49992500  0.00000000
Z1       Zr  Zr     0.54329000  0.54245000  0.44341000  0.00000000
Zr13     Zr  Zr     0.53567000  0.07129000  0.49992500  0.00000000
Zr14     Zr  Zr     0.54645000  0.99850000  0.44855500  0.00000000
Zr15     Zr  Zr     0.54288000  0.00009000  0.05665000  0.00000000
Zr16     Zr  Zr     0.45214000  0.99866000  0.05155000  0.00000000
Zr17     Zr  Zr     0.46348000  0.92690000  0.00037500  0.00000000
Zr18     Zr  Zr     0.45717000  0.99956000  0.44353000  0.00000000
O1       O   O      0.03052000  0.55166000  0.00177000  0.00000000
O2       O   O      0.10453000  0.58556000  0.04221000  0.00000000
O3       O   O      0.10391000  0.51506000  0.03975500  0.00000000
O4       O   O      0.10420000  0.58843000  0.46044500  0.00000000
O5       O   O      0.05879000  0.59658000  0.42786000  0.00000000
O6       O   O      0.99902000  0.53334000  0.38085000  0.00000000
O7       O   O      0.94166000  0.53213000  0.42115000  0.00000000
O8       O   O      0.94096000  0.41119000  0.41897000  0.00000000
O9       O   O      0.89625000  0.48295000  0.45895000  0.00000000
O10      O   O      0.89582000  0.41542000  0.45684000  0.00000000
O11      O   O      0.89567000  0.48033000  0.04325500  0.00000000
O12      O   O      0.89611000  0.41325000  0.04112000  0.00000000
O13      O   O      0.94154000  0.40947000  0.07891500  0.00000000
O14      O   O      0.94072000  0.52962000  0.08124000  0.00000000
O15      O   O      0.96959000  0.48336000  0.04450500  0.00000000
O16      O   O      0.95989000  0.53151000  0.00211000  0.00000000
O17      O   O      0.99968000  0.59852000  0.46481000  0.00000000
O18      O   O      0.00151000  0.59937000  0.04131500  0.00000000
O19      O   O      0.00145000  0.40196000  0.45890500  0.00000000
O20      O   O      0.96970000  0.48620000  0.45571500  0.00000000
O21      O   O      0.04050000  0.52184000  0.43786000  0.00000000
O22      O   O      0.05902000  0.46458000  0.42614000  0.00000000
O23      O   O      0.00072000  0.47068000  0.38096500  0.00000000
O24      O   O      0.10453000  0.51858000  0.45804500  0.00000000
O25      O   O      0.00061000  0.52992000  0.11919500  0.00000000
O26      O   O      0.99886000  0.46545000  0.11943000  0.00000000
O27      O   O      0.04043000  0.51835000  0.06243500  0.00000000
O28      O   O      0.05904000  0.59422000  0.07396500  0.00000000
O29      O   O      0.05851000  0.46159000  0.07245000  0.00000000
O30      O   O      0.99931000  0.40081000  0.03540000  0.00000000
O31      O   O      0.95984000  0.42832000  0.49806000  0.00000000
O32      O   O      0.03047000  0.47854000  0.49850500  0.00000000
O33      O   O      0.44703000  0.47775000  0.00210000  0.00000000
O34      O   O      0.41391000  0.51833000  0.04175500  0.00000000
O35      O   O      0.48493000  0.58838000  0.03921500  0.00000000
O36      O   O      0.41130000  0.51515000  0.46026500  0.00000000
O37      O   O      0.40283000  0.46135000  0.42797000  0.00000000
O38      O   O      0.46604000  0.46509000  0.38092000  0.00000000
O39      O   O      0.46726000  0.40880000  0.42102500  0.00000000
O40      O   O      0.58782000  0.52763000  0.41865000  0.00000000
O41      O   O      0.51637000  0.41258000  0.45902000  0.00000000
O42      O   O      0.58415000  0.47915000  0.45763000  0.00000000
O43      O   O      0.51802000  0.41454000  0.04395500  0.00000000
O44      O   O      0.58534000  0.48185000  0.04225500  0.00000000
O45      O   O      0.59035000  0.53232000  0.07867500  0.00000000
O46      O   O      0.46553000  0.40695000  0.07847000  0.00000000
O47      O   O      0.51511000  0.48495000  0.04605500  0.00000000
O48      O   O      0.46840000  0.42830000  0.00134500  0.00000000
O49      O   O      0.40074000  0.40042000  0.46552500  0.00000000
O50      O   O      0.39933000  0.40056000  0.04138000  0.00000000
O52      O   O      0.51326000  0.48317000  0.45586500  0.00000000
O53      O   O      0.47783000  0.51807000  0.43829500  0.00000000
O54      O   O      0.53453000  0.59314000  0.42542000  0.00000000
O55      O   O      0.52882000  0.52908000  0.38113000  0.00000000
O56      O   O      0.48128000  0.58563000  0.45823000  0.00000000
O57      O   O      0.46791000  0.46806000  0.11972500  0.00000000
O58      O   O      0.53239000  0.53052000  0.11955000  0.00000000
O59      O   O      0.48139000  0.52188000  0.06132500  0.00000000
O60      O   O      0.40763000  0.46673000  0.07705000  0.00000000
O63      O   O      0.57006000  0.52888000  0.49872500  0.00000000
O64      O   O      0.52194000  0.55173000  0.49848500  0.00000000
O65      O   O      0.52170000  0.96919000  0.00167000  0.00000000
O66      O   O      0.48215000  0.89560000  0.04270500  0.00000000
O67      O   O      0.41177000  0.89510000  0.03970000  0.00000000
O68      O   O      0.48332000  0.89460000  0.46124500  0.00000000
O69      O   O      0.53583000  0.94006000  0.42726500  0.00000000
O70      O   O      0.53387000  0.00138000  0.38108000  0.00000000
O71      O   O      0.59194000  0.05786000  0.42198000  0.00000000
O72      O   O      0.46639000  0.05826000  0.42205000  0.00000000
O73      O   O      0.58657000  0.10300000  0.45859500  0.00000000
O74      O   O      0.51922000  0.10318000  0.45620000  0.00000000
O75      O   O      0.58426000  0.10381000  0.04347000  0.00000000
O76      O   O      0.51670000  0.10338000  0.04144000  0.00000000
O77      O   O      0.46627000  0.05823000  0.07823500  0.00000000
O78      O   O      0.58911000  0.05897000  0.08119500  0.00000000
O79      O   O      0.51336000  0.02969000  0.04485500  0.00000000
O80      O   O      0.57068000  0.03992000  0.00245000  0.00000000
O81      O   O      0.59943000  0.00017000  0.46281000  0.00000000
O82      O   O      0.59809000  0.99821000  0.03980000  0.00000000
O83      O   O      0.39982000  0.99842000  0.45933500  0.00000000
O84      O   O      0.51631000  0.02977000  0.45437000  0.00000000
O85      O   O      0.48138000  0.95871000  0.43913500  0.00000000
O86      O   O      0.40833000  0.94126000  0.42234000  0.00000000
O87      O   O      0.46990000  0.00027000  0.38061500  0.00000000
O88      O   O      0.41353000  0.89563000  0.45825500  0.00000000
O89      O   O      0.52943000  0.99910000  0.11931000  0.00000000
O90      O   O      0.46731000  0.00178000  0.11903500  0.00000000
O91      O   O      0.47842000  0.95922000  0.06206000  0.00000000
O92      O   O      0.53622000  0.94115000  0.07444000  0.00000000
O93      O   O      0.40455000  0.94057000  0.07328000  0.00000000
O94      O   O      0.40097000  0.00052000  0.03668500  0.00000000
O95      O   O      0.46987000  0.03990000  0.49839500  0.00000000
O96      O   O      0.44661000  0.96876000  0.49844500  0.00000000
C1       C   C      0.35550000  0.51936000  0.58636000  0.00000000
C2       C   C      0.36579000  0.49095000  0.59219500  0.00000000
C3       C   C      0.34641000  0.46237000  0.62150500  0.00000000
C4       C   C      0.31768000  0.46256000  0.64502000  0.00000000
C5       C   C      0.30746000  0.49121000  0.63971500  0.00000000
C6       C   C      0.32661000  0.51937000  0.60974500  0.00000000
C7       C   C      0.34513000  0.46045000  0.87891000  0.00000000
C8       C   C      0.36318000  0.48763000  0.90980000  0.00000000
C9       C   C      0.35244000  0.51565000  0.91629000  0.00000000
C10      C   C      0.32437000  0.51653000  0.89225500  0.00000000
C11      C   C      0.30644000  0.48972000  0.86082000  0.00000000
C12      C   C      0.31719000  0.46153000  0.85476500  0.00000000
C13      C   C      0.11558000  0.46300000  0.87763000  0.00000000
C14      C   C      0.12498000  0.49025000  0.90847500  0.00000000
C15      C   C      0.16389000  0.51754000  0.91546500  0.00000000
C16      C   C      0.19273000  0.51760000  0.89195000  0.00000000
C17      C   C      0.18357000  0.49070000  0.86055500  0.00000000
C18      C   C      0.14446000  0.46321000  0.85402000  0.00000000
C19      C   C      0.11554000  0.46016000  0.62081500  0.00000000
C20      C   C      0.12454000  0.48768000  0.59032500  0.00000000
C21      C   C      0.16323000  0.51612000  0.58416500  0.00000000
C22      C   C      0.19226000  0.51709000  0.60813000  0.00000000
C23      C   C      0.18348000  0.48995000  0.63919500  0.00000000
C24      C   C      0.14462000  0.46134000  0.64493000  0.00000000
C25      C   C      0.27609000  0.49082000  0.83618500  0.00000000
C26      C   C      0.27651000  0.49090000  0.79332500  0.00000000
C27      C   C      0.30816000  0.49341000  0.77073000  0.00000000
C28      C   C      0.24569000  0.49152000  0.85631000  0.00000000
C29      C   C      0.24532000  0.49069000  0.77169000  0.00000000
C30      C   C      0.21491000  0.49111000  0.66388000  0.00000000
C31      C   C      0.21445000  0.49104000  0.70672000  0.00000000
C32      C   C      0.18533000  0.49359000  0.72931500  0.00000000
C33      C   C      0.24613000  0.49203000  0.64376000  0.00000000
C34      C   C      0.24536000  0.49074000  0.72841000  0.00000000
C35      C   C      0.27654000  0.49153000  0.66401500  0.00000000
C36      C   C      0.27669000  0.49119000  0.70686000  0.00000000
C37      C   C      0.30825000  0.49357000  0.72953500  0.00000000
C38      C   C      0.21479000  0.49117000  0.83611000  0.00000000
C39      C   C      0.21442000  0.49111000  0.79324000  0.00000000
C40      C   C      0.18538000  0.49372000  0.77051500  0.00000000
C41      C   C      0.53832000  0.88426000  0.62249000  0.00000000
C42      C   C      0.51093000  0.87511000  0.59180500  0.00000000
C43      C   C      0.48357000  0.83626000  0.58465000  0.00000000
C44      C   C      0.48340000  0.80723000  0.60792500  0.00000000
C45      C   C      0.51029000  0.81614000  0.63929500  0.00000000
C46      C   C      0.53795000  0.85519000  0.64588500  0.00000000
C47      C   C      0.53815000  0.88375000  0.87946500  0.00000000
C48      C   C      0.51023000  0.87426000  0.90965000  0.00000000
C49      C   C      0.48196000  0.83547000  0.91536000  0.00000000
C50      C   C      0.48163000  0.80680000  0.89132000  0.00000000
C51      C   C      0.50925000  0.81607000  0.86063000  0.00000000
C52      C   C      0.53758000  0.85507000  0.85522000  0.00000000
C53      C   C      0.53740000  0.65271000  0.87812000  0.00000000
C54      C   C      0.51001000  0.63462000  0.90883000  0.00000000
C55      C   C      0.48279000  0.64631000  0.91599000  0.00000000
C56      C   C      0.48266000  0.67509000  0.89253500  0.00000000
C57      C   C      0.50944000  0.69284000  0.86098000  0.00000000
C58      C   C      0.53707000  0.68134000  0.85454000  0.00000000
C59      C   C      0.53938000  0.65369000  0.62140000  0.00000000
C60      C   C      0.51203000  0.63562000  0.59068000  0.00000000
C61      C   C      0.48427000  0.64669000  0.58408500  0.00000000
C62      C   C      0.48371000  0.67500000  0.60794000  0.00000000
C63      C   C      0.51055000  0.69282000  0.63938000  0.00000000
C64      C   C      0.53852000  0.68175000  0.64548500  0.00000000
C65      C   C      0.50878000  0.78488000  0.83608000  0.00000000
C66      C   C      0.50909000  0.78528000  0.79319000  0.00000000
C67      C   C      0.50662000  0.81431000  0.77041500  0.00000000
C68      C   C      0.50811000  0.75387000  0.85632000  0.00000000
C69      C   C      0.50954000  0.75437000  0.77168000  0.00000000
C70      C   C      0.50961000  0.72337000  0.66387500  0.00000000
C71      C   C      0.50937000  0.72306000  0.70679500  0.00000000
C72      C   C      0.50646000  0.69136000  0.72954500  0.00000000
C73      C   C      0.50911000  0.75383000  0.64364500  0.00000000
C74      C   C      0.50973000  0.75435000  0.72834500  0.00000000
C75      C   C      0.50954000  0.78480000  0.66373500  0.00000000
C76      C   C      0.50943000  0.78522000  0.70664500  0.00000000
C77      C   C      0.50674000  0.81423000  0.72919000  0.00000000
C78      C   C      0.50878000  0.72340000  0.83632000  0.00000000
C79      C   C      0.50895000  0.72305000  0.79340000  0.00000000
C80      C   C      0.50622000  0.69133000  0.77079000  0.00000000
C81      C   C      0.11557000  0.65233000  0.62239500  0.00000000
C82      C   C      0.12500000  0.63461000  0.59143000  0.00000000
C83      C   C      0.16393000  0.64637000  0.58429500  0.00000000
C84      C   C      0.19275000  0.67512000  0.60783000  0.00000000
C85      C   C      0.18355000  0.69268000  0.63940000  0.00000000
C86      C   C      0.14443000  0.68094000  0.64603500  0.00000000
C87      C   C      0.11547000  0.65440000  0.87890500  0.00000000
C88      C   C      0.12470000  0.63635000  0.90972500  0.00000000
C89      C   C      0.16351000  0.64719000  0.91614500  0.00000000
C90      C   C      0.19242000  0.67536000  0.89216500  0.00000000
C91      C   C      0.18346000  0.69332000  0.86082500  0.00000000
C92      C   C      0.14444000  0.68244000  0.85482000  0.00000000
C93      C   C      0.34675000  0.88429000  0.87766000  0.00000000
C94      C   C      0.36592000  0.87516000  0.90731000  0.00000000
C95      C   C      0.35525000  0.83642000  0.91363500  0.00000000
C96      C   C      0.32627000  0.80744000  0.89042000  0.00000000
C97      C   C      0.30730000  0.81636000  0.86015500  0.00000000
C98      C   C      0.31783000  0.85527000  0.85441000  0.00000000
C99      C   C      0.34459000  0.88397000  0.61996000  0.00000000
C100     C   C      0.36364000  0.87469000  0.59030500  0.00000000
C101     C   C      0.35354000  0.83603000  0.58475000  0.00000000
C102     C   C      0.32520000  0.80725000  0.60869500  0.00000000
C103     C   C      0.30645000  0.81631000  0.63909000  0.00000000
C104     C   C      0.31646000  0.85516000  0.64412500  0.00000000
C105     C   C      0.21483000  0.72374000  0.83616500  0.00000000
C106     C   C      0.21439000  0.72335000  0.79329000  0.00000000
C107     C   C      0.18535000  0.69164000  0.77071000  0.00000000
C108     C   C      0.24601000  0.75411000  0.85624000  0.00000000
C109     C   C      0.24526000  0.75456000  0.77157500  0.00000000
C110     C   C      0.27598000  0.78502000  0.66375500  0.00000000
C111     C   C      0.27634000  0.78548000  0.70661000  0.00000000
C112     C   C      0.30794000  0.81469000  0.72915000  0.00000000
C113     C   C      0.24566000  0.75390000  0.64364500  0.00000000
C114     C   C      0.24518000  0.75452000  0.72828500  0.00000000
C115     C   C      0.21474000  0.72341000  0.66387000  0.00000000
C116     C   C      0.21434000  0.72314000  0.70674500  0.00000000
C117     C   C      0.18540000  0.69150000  0.72950500  0.00000000
C118     C   C      0.27639000  0.78505000  0.83595500  0.00000000
C119     C   C      0.27657000  0.78547000  0.79309500  0.00000000
C120     C   C      0.30807000  0.81464000  0.77036000  0.00000000
C121     C   C      0.65171000  0.53574000  0.62351000  0.00000000
C122     C   C      0.63152000  0.50711000  0.59449500  0.00000000
C123     C   C      0.64115000  0.47825000  0.58835500  0.00000000
C124     C   C      0.67024000  0.47791000  0.61108500  0.00000000
C125     C   C      0.69033000  0.50621000  0.64064500  0.00000000
C126     C   C      0.68065000  0.53521000  0.64636000  0.00000000
C127     C   C      0.65070000  0.53291000  0.87627500  0.00000000
C128     C   C      0.63124000  0.50468000  0.90592000  0.00000000
C129     C   C      0.64264000  0.47734000  0.91352000  0.00000000
C130     C   C      0.67225000  0.47763000  0.89112000  0.00000000
C131     C   C      0.69132000  0.50523000  0.86063000  0.00000000
C132     C   C      0.68039000  0.53324000  0.85406000  0.00000000
C133     C   C      0.88365000  0.53558000  0.87648000  0.00000000
C134     C   C      0.87529000  0.50704000  0.90559500  0.00000000
C135     C   C      0.83686000  0.47795000  0.91159000  0.00000000
C136     C   C      0.80739000  0.47731000  0.88868500  0.00000000
C137     C   C      0.81549000  0.50558000  0.85917000  0.00000000
C138     C   C      0.85413000  0.53480000  0.85350000  0.00000000
C139     C   C      0.88262000  0.53410000  0.62425500  0.00000000
C140     C   C      0.87416000  0.50601000  0.59458500  0.00000000
C141     C   C      0.83548000  0.47840000  0.58685500  0.00000000
C142     C   C      0.80594000  0.47842000  0.60905000  0.00000000
C143     C   C      0.81418000  0.50589000  0.63960000  0.00000000
C144     C   C      0.85304000  0.53403000  0.64641000  0.00000000
C145     C   C      0.72218000  0.50469000  0.83639000  0.00000000
C146     C   C      0.72161000  0.50492000  0.79354000  0.00000000
C147     C   C      0.68981000  0.50241000  0.77118500  0.00000000
C148     C   C      0.75274000  0.50402000  0.85622500  0.00000000
C149     C   C      0.75272000  0.50535000  0.77159500  0.00000000
C150     C   C      0.78258000  0.50512000  0.66366500  0.00000000
C151     C   C      0.78313000  0.50494000  0.70649000  0.00000000
C152     C   C      0.81214000  0.50191000  0.72878500  0.00000000
C153     C   C      0.75155000  0.50475000  0.64374500  0.00000000
C154     C   C      0.75249000  0.50548000  0.72837000  0.00000000
C155     C   C      0.72135000  0.50545000  0.66432500  0.00000000
C156     C   C      0.72123000  0.50538000  0.70712500  0.00000000
C157     C   C      0.68968000  0.50274000  0.73003500  0.00000000
C158     C   C      0.78362000  0.50477000  0.83560000  0.00000000
C159     C   C      0.78370000  0.50487000  0.79281000  0.00000000
C160     C   C      0.81249000  0.50198000  0.76993500  0.00000000
C161     C   C      0.46431000  0.11630000  0.62418000  0.00000000
C162     C   C      0.49228000  0.12464000  0.59431500  0.00000000
C163     C   C      0.52083000  0.16317000  0.58763500  0.00000000
C164     C   C      0.52145000  0.19267000  0.61047000  0.00000000
C165     C   C      0.49375000  0.18454000  0.64072500  0.00000000
C166     C   C      0.46506000  0.14583000  0.64705000  0.00000000
C167     C   C      0.46472000  0.11608000  0.87575000  0.00000000
C168     C   C      0.49210000  0.12461000  0.90629500  0.00000000
C169     C   C      0.51939000  0.16327000  0.91441000  0.00000000
C170     C   C      0.51964000  0.19277000  0.89196500  0.00000000
C171     C   C      0.49287000  0.18449000  0.86064000  0.00000000
C172     C   C      0.46511000  0.14563000  0.85326000  0.00000000
C173     C   C      0.46405000  0.34755000  0.87636000  0.00000000
C174     C   C      0.49220000  0.36730000  0.90596500  0.00000000
C175     C   C      0.52069000  0.35726000  0.91280500  0.00000000
C176     C   C      0.52115000  0.32820000  0.89019500  0.00000000
C177     C   C      0.49336000  0.30858000  0.86005500  0.00000000
C178     C   C      0.46468000  0.31863000  0.85366000  0.00000000
C179     C   C      0.46478000  0.34818000  0.62558500  0.00000000
C180     C   C      0.49193000  0.36695000  0.59483500  0.00000000
C181     C   C      0.51959000  0.35601000  0.58686000  0.00000000
C182     C   C      0.52025000  0.32700000  0.60937500  0.00000000
C183     C   C      0.49344000  0.30828000  0.64058500  0.00000000
C184     C   C      0.46553000  0.31920000  0.64805000  0.00000000
C185     C   C      0.49399000  0.21619000  0.83658000  0.00000000
C186     C   C      0.49449000  0.21598000  0.79376500  0.00000000
C187     C   C      0.49752000  0.18711000  0.77122000  0.00000000
C188     C   C      0.49444000  0.24717000  0.85670000  0.00000000
C189     C   C      0.49431000  0.24688000  0.77210000  0.00000000
C190     C   C      0.49457000  0.27759000  0.66443500  0.00000000
C191     C   C      0.49495000  0.27817000  0.70724500  0.00000000
C192     C   C      0.49807000  0.31011000  0.72979500  0.00000000
C193     C   C      0.49501000  0.24709000  0.64425000  0.00000000
C194     C   C      0.49447000  0.24692000  0.72888000  0.00000000
C195     C   C      0.49460000  0.21624000  0.66456000  0.00000000
C196     C   C      0.49477000  0.21601000  0.70736500  0.00000000
C197     C   C      0.49762000  0.18711000  0.73006500  0.00000000
C198     C   C      0.49421000  0.27767000  0.83634500  0.00000000
C199     C   C      0.49462000  0.27812000  0.79356000  0.00000000
C200     C   C      0.49786000  0.31005000  0.77093500  0.00000000
C201     C   C      0.88369000  0.34791000  0.62338000  0.00000000
C202     C   C      0.87524000  0.36824000  0.59452500  0.00000000
C203     C   C      0.83679000  0.35899000  0.58880000  0.00000000
C204     C   C      0.80738000  0.33003000  0.61164500  0.00000000
C205     C   C      0.81557000  0.30965000  0.64085500  0.00000000
C206     C   C      0.85423000  0.31904000  0.64627500  0.00000000
C207     C   C      0.88308000  0.34809000  0.87659000  0.00000000
C208     C   C      0.87450000  0.36816000  0.90563500  0.00000000
C209     C   C      0.83584000  0.35753000  0.91276000  0.00000000
C210     C   C      0.80640000  0.32796000  0.89049000  0.00000000
C211     C   C      0.81478000  0.30835000  0.86052000  0.00000000
C212     C   C      0.85360000  0.31859000  0.85435000  0.00000000
C213     C   C      0.65177000  0.11597000  0.87572500  0.00000000
C214     C   C      0.63227000  0.12424000  0.90577000  0.00000000
C215     C   C      0.64242000  0.16276000  0.91276000  0.00000000
C216     C   C      0.67141000  0.19235000  0.89013000  0.00000000
C217     C   C      0.69088000  0.18432000  0.85968500  0.00000000
C218     C   C      0.68064000  0.14559000  0.85302000  0.00000000
C219     C   C      0.65133000  0.11726000  0.62451000  0.00000000
C220     C   C      0.63153000  0.12557000  0.59486000  0.00000000
C221     C   C      0.64239000  0.16420000  0.58724500  0.00000000
C222     C   C      0.67191000  0.19380000  0.60945000  0.00000000
C223     C   C      0.69133000  0.18571000  0.63992500  0.00000000
C224     C   C      0.68079000  0.14689000  0.64667500  0.00000000
C225     C   C      0.78322000  0.27746000  0.83651000  0.00000000
C226     C   C      0.78376000  0.27805000  0.79368500  0.00000000
C227     C   C      0.81296000  0.30986000  0.77129500  0.00000000
C228     C   C      0.75216000  0.24695000  0.85650000  0.00000000
C229     C   C      0.75294000  0.24701000  0.77186500  0.00000000
C230     C   C      0.72225000  0.21736000  0.66393000  0.00000000
C231     C   C      0.72177000  0.21674000  0.70678000  0.00000000
C232     C   C      0.68986000  0.18773000  0.72920500  0.00000000
C233     C   C      0.75280000  0.24847000  0.64397500  0.00000000
C234     C   C      0.75304000  0.24731000  0.72862500  0.00000000
C235     C   C      0.78382000  0.27857000  0.66451000  0.00000000
C236     C   C      0.78408000  0.27860000  0.70729500  0.00000000
C237     C   C      0.81316000  0.31008000  0.73014500  0.00000000
C238     C   C      0.72181000  0.21613000  0.83601500  0.00000000
C239     C   C      0.72157000  0.21609000  0.79320500  0.00000000
C240     C   C      0.68978000  0.18742000  0.77036000  0.00000000
C241     C   C      0.09391000  0.49097000  0.93277500  0.00000000
C242     C   C      0.09370000  0.60506000  0.93463000  0.00000000
C243     C   C      0.09392000  0.60272000  0.56731000  0.00000000
C244     C   C      0.90587000  0.50535000  0.57142000  0.00000000
C245     C   C      0.90662000  0.39925000  0.56982000  0.00000000
C246     C   C      0.90609000  0.40057000  0.92876500  0.00000000
C247     C   C      0.09342000  0.48792000  0.56556500  0.00000000
C248     C   C      0.90673000  0.50744000  0.93026000  0.00000000
C249     C   C      0.50888000  0.60231000  0.93268500  0.00000000
C250     C   C      0.39446000  0.48785000  0.93467000  0.00000000
C251     C   C      0.39787000  0.49181000  0.56838000  0.00000000
C252     C   C      0.49174000  0.39843000  0.57081500  0.00000000
C253     C   C      0.60012000  0.50708000  0.57013000  0.00000000
C254     C   C      0.59865000  0.50374000  0.92901500  0.00000000
C255     C   C      0.51155000  0.60419000  0.56588000  0.00000000
C256     C   C      0.49187000  0.39849000  0.93028500  0.00000000
C257     C   C      0.39802000  0.90632000  0.93126000  0.00000000
C258     C   C      0.51003000  0.90526000  0.93468000  0.00000000
C259     C   C      0.50992000  0.90619000  0.56775000  0.00000000
C260     C   C      0.59932000  0.09378000  0.57158500  0.00000000
C261     C   C      0.49177000  0.09316000  0.56962000  0.00000000
C262     C   C      0.49256000  0.09299000  0.92977000  0.00000000
C263     C   C      0.39536000  0.90575000  0.56583000  0.00000000
C264     C   C      0.60129000  0.09277000  0.93044500  0.00000000
H1       H   H      0.37084000  0.54150000  0.56359000  0.00000000
H2       H   H      0.35420000  0.44006000  0.62538000  0.00000000
H3       H   H      0.30242000  0.44002000  0.66749000  0.00000000
H4       H   H      0.31905000  0.54184000  0.60553000  0.00000000
H5       H   H      0.35348000  0.43865000  0.87407500  0.00000000
H6       H   H      0.36680000  0.53682000  0.94016500  0.00000000
H7       H   H      0.31653000  0.53873000  0.89715000  0.00000000
H8       H   H      0.30296000  0.43996000  0.83116500  0.00000000
H9       H   H      0.08529000  0.44184000  0.87236500  0.00000000
H10      H   H      0.17095000  0.53878000  0.93931000  0.00000000
H11      H   H      0.22291000  0.53926000  0.89716000  0.00000000
H12      H   H      0.13687000  0.44159000  0.83043500  0.00000000
H13      H   H      0.08546000  0.43805000  0.62539500  0.00000000
H14      H   H      0.16991000  0.53759000  0.56065500  0.00000000
H15      H   H      0.22222000  0.53964000  0.60356500  0.00000000
H16      H   H      0.13742000  0.43959000  0.66830000  0.00000000
H17      H   H      0.24521000  0.49062000  0.88921000  0.00000000
H18      H   H      0.16321000  0.49647000  0.71308000  0.00000000
H19      H   H      0.33312000  0.49618000  0.78695000  0.00000000
H20      H   H      0.24589000  0.49142000  0.61086000  0.00000000
H21      H   H      0.16333000  0.49680000  0.78662000  0.00000000
H22      H   H      0.33328000  0.49647000  0.71334500  0.00000000
H23      H   H      0.55960000  0.91446000  0.62792000  0.00000000
H24      H   H      0.46230000  0.82940000  0.56085500  0.00000000
H25      H   H      0.46164000  0.77713000  0.60255000  0.00000000
H26      H   H      0.55960000  0.86256000  0.66941500  0.00000000
H27      H   H      0.56021000  0.91393000  0.87553000  0.00000000
H28      H   H      0.46024000  0.82837000  0.93872000  0.00000000
H29      H   H      0.45930000  0.77672000  0.89559000  0.00000000
H30      H   H      0.55971000  0.86267000  0.83217000  0.00000000
H31      H   H      0.55867000  0.64371000  0.87298500  0.00000000
H32      H   H      0.46148000  0.63199000  0.93977500  0.00000000
H33      H   H      0.46088000  0.68344000  0.89779000  0.00000000
H34      H   H      0.55867000  0.69543000  0.83093000  0.00000000
H35      H   H      0.56138000  0.64554000  0.62581500  0.00000000
H36      H   H      0.46305000  0.63249000  0.56019500  0.00000000
H37      H   H      0.46177000  0.68317000  0.60288500  0.00000000
H38      H   H      0.56028000  0.69604000  0.66890500  0.00000000
H39      H   H      0.50871000  0.75430000  0.88923000  0.00000000
H40      H   H      0.50346000  0.66630000  0.71339000  0.00000000
H41      H   H      0.50362000  0.83641000  0.78649000  0.00000000
H42      H   H      0.51024000  0.75428000  0.61075500  0.00000000
H43      H   H      0.50294000  0.66617000  0.78699000  0.00000000
H44      H   H      0.50374000  0.83624000  0.71293000  0.00000000
H45      H   H      0.08525000  0.64307000  0.62774500  0.00000000
H46      H   H      0.17100000  0.63229000  0.56032500  0.00000000
H47      H   H      0.22295000  0.68376000  0.60248000  0.00000000
H48      H   H      0.13681000  0.69486000  0.66972500  0.00000000
H49      H   H      0.08529000  0.64600000  0.87411500  0.00000000
H50      H   H      0.17042000  0.63283000  0.93993500  0.00000000
H51      H   H      0.22249000  0.68325000  0.89703000  0.00000000
H52      H   H      0.13698000  0.69660000  0.83124500  0.00000000
H53      H   H      0.35473000  0.91440000  0.87342500  0.00000000
H54      H   H      0.37036000  0.82965000  0.93671500  0.00000000
H55      H   H      0.31847000  0.77740000  0.89505500  0.00000000
H56      H   H      0.30268000  0.86253000  0.83178000  0.00000000
H57      H   H      0.35228000  0.91406000  0.62365000  0.00000000
H58      H   H      0.36860000  0.82915000  0.56170500  0.00000000
H59      H   H      0.31783000  0.77726000  0.60462000  0.00000000
H60      H   H      0.30146000  0.86253000  0.66682500  0.00000000
H61      H   H      0.24575000  0.75456000  0.88914000  0.00000000
H62      H   H      0.33281000  0.83691000  0.71286000  0.00000000
H63      H   H      0.16330000  0.66662000  0.78694000  0.00000000
H64      H   H      0.24526000  0.75425000  0.61075000  0.00000000
H65      H   H      0.33309000  0.83682000  0.78649500  0.00000000
H66      H   H      0.16341000  0.66633000  0.71343500  0.00000000
H67      H   H      0.64458000  0.55851000  0.62756500  0.00000000
H68      H   H      0.62525000  0.45612000  0.56572500  0.00000000
H69      H   H      0.67729000  0.45511000  0.60655500  0.00000000
H70      H   H      0.69650000  0.55777000  0.66862000  0.00000000
H71      H   H      0.64213000  0.55449000  0.87103000  0.00000000
H72      H   H      0.62749000  0.45561000  0.93672000  0.00000000
H73      H   H      0.68032000  0.45567000  0.89645000  0.00000000
H74      H   H      0.69563000  0.55550000  0.83134000  0.00000000
H75      H   H      0.91349000  0.55850000  0.87250500  0.00000000
H76      H   H      0.83072000  0.45591000  0.93428000  0.00000000
H77      H   H      0.77758000  0.45433000  0.89309000  0.00000000
H78      H   H      0.86074000  0.55735000  0.83124000  0.00000000
H79      H   H      0.91268000  0.55597000  0.62947000  0.00000000
H80      H   H      0.82919000  0.45681000  0.56358000  0.00000000
H81      H   H      0.77595000  0.45639000  0.60348000  0.00000000
H82      H   H      0.85985000  0.55619000  0.66920000  0.00000000
H83      H   H      0.75337000  0.50461000  0.88914000  0.00000000
H84      H   H      0.83389000  0.49860000  0.71233500  0.00000000
H85      H   H      0.66479000  0.49927000  0.78756500  0.00000000
H86      H   H      0.75172000  0.50559000  0.61084000  0.00000000
H87      H   H      0.83453000  0.49880000  0.78594000  0.00000000
H88      H   H      0.66461000  0.49996000  0.71403500  0.00000000
H89      H   H      0.44186000  0.08639000  0.62897000  0.00000000
H90      H   H      0.54250000  0.16937000  0.56446500  0.00000000
H91      H   H      0.54404000  0.22252000  0.60549000  0.00000000
H92      H   H      0.44293000  0.13912000  0.66986000  0.00000000
H93      H   H      0.44351000  0.08597000  0.86975000  0.00000000
H94      H   H      0.54055000  0.16957000  0.93818500  0.00000000
H95      H   H      0.54140000  0.22276000  0.89790000  0.00000000
H96      H   H      0.44358000  0.13880000  0.82973000  0.00000000
H97      H   H      0.44154000  0.35498000  0.87176000  0.00000000
H98      H   H      0.54244000  0.37282000  0.93586500  0.00000000
H99      H   H      0.54369000  0.32084000  0.89519000  0.00000000
H100     H   H      0.44245000  0.30305000  0.83098000  0.00000000
H101     H   H      0.44338000  0.35684000  0.63159000  0.00000000
H102     H   H      0.54067000  0.37094000  0.56304000  0.00000000
H103     H   H      0.54223000  0.31905000  0.60349000  0.00000000
H104     H   H      0.44408000  0.30439000  0.67163000  0.00000000
H105     H   H      0.49327000  0.24668000  0.88958500  0.00000000
H106     H   H      0.50153000  0.33531000  0.71358000  0.00000000
H107     H   H      0.50073000  0.16522000  0.78744500  0.00000000
H108     H   H      0.49394000  0.24651000  0.61135500  0.00000000
H109     H   H      0.50113000  0.33520000  0.78715000  0.00000000
H110     H   H      0.50087000  0.16518000  0.71392000  0.00000000
H111     H   H      0.91354000  0.35476000  0.62717500  0.00000000
H112     H   H      0.83058000  0.37504000  0.56636000  0.00000000
H113     H   H      0.77755000  0.32325000  0.60742500  0.00000000
H114     H   H      0.86089000  0.30291000  0.66825000  0.00000000
H115     H   H      0.91311000  0.35594000  0.87189000  0.00000000
H116     H   H      0.82949000  0.37317000  0.93558000  0.00000000
H117     H   H      0.77642000  0.32032000  0.89551500  0.00000000
H118     H   H      0.86041000  0.30285000  0.83203500  0.00000000
H119     H   H      0.64421000  0.08606000  0.87073000  0.00000000
H120     H   H      0.62701000  0.16889000  0.93606000  0.00000000
H121     H   H      0.67880000  0.22221000  0.89536000  0.00000000
H122     H   H      0.69602000  0.13897000  0.83008500  0.00000000
H123     H   H      0.64338000  0.08728000  0.62968500  0.00000000
H124     H   H      0.62696000  0.17043000  0.56406500  0.00000000
H125     H   H      0.67966000  0.22372000  0.60391500  0.00000000
H126     H   H      0.69628000  0.14017000  0.66937000  0.00000000
H127     H   H      0.75242000  0.24636000  0.88941000  0.00000000
H128     H   H      0.66470000  0.16599000  0.71289500  0.00000000
H129     H   H      0.83499000  0.33476000  0.78768000  0.00000000
H130     H   H      0.75330000  0.24844000  0.61105500  0.00000000
H131     H   H      0.66456000  0.16543000  0.78641000  0.00000000
H132     H   H      0.83537000  0.33514000  0.71409000  0.00000000
H133     H   H      0.94362000  0.40041000  0.99810500  0.00000000
H134     H   H      0.05629000  0.52974000  0.91365000  0.00000000
H135     H   H      0.02702000  0.61924000  0.55044500  0.00000000
H136     H   H      0.00137000  0.60164000  0.50937000  0.00000000
H137     H   H      0.02100000  0.39965000  0.54715000  0.00000000
H138     H   H      0.99884000  0.49182000  0.62214500  0.00000000
H139     H   H      0.97861000  0.52857000  0.63327000  0.00000000
H140     H   H      0.97337000  0.44502000  0.62792000  0.00000000
H141     H   H      0.94369000  0.54322000  0.50207500  0.00000000
H142     H   H      0.05617000  0.52620000  0.58667000  0.00000000
H143     H   H      0.02153000  0.62132000  0.95319000  0.00000000
H144     H   H      0.00117000  0.39947000  0.99082000  0.00000000
H145     H   H      0.02699000  0.40760000  0.94987500  0.00000000
H146     H   H      0.97358000  0.52838000  0.87227500  0.00000000
H147     H   H      0.97874000  0.45007000  0.86684000  0.00000000
H148     H   H      0.99898000  0.50691000  0.87809000  0.00000000
H149     H   H      0.59776000  0.53908000  0.99905000  0.00000000
H150     H   H      0.46984000  0.52623000  0.91435500  0.00000000
H151     H   H      0.39741000  0.39856000  0.50897000  0.00000000
H152     H   H      0.39972000  0.37782000  0.55113500  0.00000000
H153     H   H      0.50588000  0.50424000  0.62234000  0.00000000
H154     H   H      0.44862000  0.47099000  0.63467000  0.00000000
H155     H   H      0.55259000  0.52565000  0.62923500  0.00000000
H156     H   H      0.45717000  0.40049000  0.50090000  0.00000000
H157     H   H      0.47436000  0.53107000  0.58513000  0.00000000
H158     H   H      0.37786000  0.39983000  0.95457500  0.00000000
H159     H   H      0.47099000  0.44465000  0.87227000  0.00000000
H160     H   H      0.54918000  0.52739000  0.86686000  0.00000000
H161     H   H      0.49258000  0.49151000  0.87829500  0.00000000
H162     H   H      0.45866000  0.05649000  0.99807500  0.00000000
H163     H   H      0.47353000  0.94242000  0.91536500  0.00000000
H164     H   H      0.59278000  0.97274000  0.54861500  0.00000000
H165     H   H      0.60077000  0.99867000  0.50809500  0.00000000
H166     H   H      0.39839000  0.02142000  0.54824500  0.00000000
H167     H   H      0.49353000  0.00131000  0.62184500  0.00000000
H168     H   H      0.55008000  0.02102000  0.63346500  0.00000000
H169     H   H      0.47279000  0.02743000  0.62734000  0.00000000
H170     H   H      0.59849000  0.05673000  0.50284000  0.00000000
H171     H   H      0.47002000  0.94303000  0.58596000  0.00000000
H172     H   H      0.62295000  0.02208000  0.95256500  0.00000000
H173     H   H      0.39994000  0.02124000  0.94895000  0.00000000
H174     H   H      0.39729000  0.99874000  0.99094500  0.00000000
H175     H   H      0.55416000  0.02664000  0.87194500  0.00000000
H176     H   H      0.45054000  0.97854000  0.86517500  0.00000000
H177     H   H      0.50736000  0.00137000  0.87825500  0.00000000
Zr1      Zr  Zr     0.92780000  0.46390000  0.50006500  0.00000000
Zr2      Zr  Zr     0.00081000  0.54722000  0.94870500  0.00000000
Zr3      Zr  Zr     0.99950000  0.54226000  0.55655500  0.00000000
Zr4      Zr  Zr     0.00065000  0.45335000  0.55149500  0.00000000
Zr5      Zr  Zr     0.07264000  0.53613000  0.50016000  0.00000000
Zr6      Zr  Zr     0.99956000  0.45713000  0.94363000  0.00000000
Zr7      Zr  Zr     0.53486000  0.46294000  0.50039500  0.00000000
Zr8      Zr  Zr     0.45234000  0.45311000  0.94872000  0.00000000
Zr9      Zr  Zr     0.45589000  0.45617000  0.55672500  0.00000000
Z0       Zr  Zr     0.54542000  0.54571000  0.55188500  0.00000000
Zr11     Zr  Zr     0.46370000  0.53610000  0.99992500  0.00000000
Z1       Zr  Zr     0.54329000  0.54245000  0.94341000  0.00000000
Zr13     Zr  Zr     0.53567000  0.07129000  0.99992500  0.00000000
Zr14     Zr  Zr     0.54645000  0.99850000  0.94855500  0.00000000
Zr15     Zr  Zr     0.54288000  0.00009000  0.55665000  0.00000000
Zr16     Zr  Zr     0.45214000  0.99866000  0.55155000  0.00000000
Zr17     Zr  Zr     0.46348000  0.92690000  0.50037500  0.00000000
Zr18     Zr  Zr     0.45717000  0.99956000  0.94353000  0.00000000
O1       O   O      0.03052000  0.55166000  0.50177000  0.00000000
O2       O   O      0.10453000  0.58556000  0.54221000  0.00000000
O3       O   O      0.10391000  0.51506000  0.53975500  0.00000000
O4       O   O      0.10420000  0.58843000  0.96044500  0.00000000
O5       O   O      0.05879000  0.59658000  0.92786000  0.00000000
O6       O   O      0.99902000  0.53334000  0.88085000  0.00000000
O7       O   O      0.94166000  0.53213000  0.92115000  0.00000000
O8       O   O      0.94096000  0.41119000  0.91897000  0.00000000
O9       O   O      0.89625000  0.48295000  0.95895000  0.00000000
O10      O   O      0.89582000  0.41542000  0.95684000  0.00000000
O11      O   O      0.89567000  0.48033000  0.54325500  0.00000000
O12      O   O      0.89611000  0.41325000  0.54112000  0.00000000
O13      O   O      0.94154000  0.40947000  0.57891500  0.00000000
O14      O   O      0.94072000  0.52962000  0.58124000  0.00000000
O15      O   O      0.96959000  0.48336000  0.54450500  0.00000000
O16      O   O      0.95989000  0.53151000  0.50211000  0.00000000
O17      O   O      0.99968000  0.59852000  0.96481000  0.00000000
O18      O   O      0.00151000  0.59937000  0.54131500  0.00000000
O19      O   O      0.00145000  0.40196000  0.95890500  0.00000000
O20      O   O      0.96970000  0.48620000  0.95571500  0.00000000
O21      O   O      0.04050000  0.52184000  0.93786000  0.00000000
O22      O   O      0.05902000  0.46458000  0.92614000  0.00000000
O23      O   O      0.00072000  0.47068000  0.88096500  0.00000000
O24      O   O      0.10453000  0.51858000  0.95804500  0.00000000
O25      O   O      0.00061000  0.52992000  0.61919500  0.00000000
O26      O   O      0.99886000  0.46545000  0.61943000  0.00000000
O27      O   O      0.04043000  0.51835000  0.56243500  0.00000000
O28      O   O      0.05904000  0.59422000  0.57396500  0.00000000
O29      O   O      0.05851000  0.46159000  0.57245000  0.00000000
O30      O   O      0.99931000  0.40081000  0.53540000  0.00000000
O31      O   O      0.95984000  0.42832000  0.99806000  0.00000000
O32      O   O      0.03047000  0.47854000  0.99850500  0.00000000
O33      O   O      0.44703000  0.47775000  0.50210000  0.00000000
O34      O   O      0.41391000  0.51833000  0.54175500  0.00000000
O35      O   O      0.48493000  0.58838000  0.53921500  0.00000000
O36      O   O      0.41130000  0.51515000  0.96026500  0.00000000
O37      O   O      0.40283000  0.46135000  0.92797000  0.00000000
O38      O   O      0.46604000  0.46509000  0.88092000  0.00000000
O39      O   O      0.46726000  0.40880000  0.92102500  0.00000000
O40      O   O      0.58782000  0.52763000  0.91865000  0.00000000
O41      O   O      0.51637000  0.41258000  0.95902000  0.00000000
O42      O   O      0.58415000  0.47915000  0.95763000  0.00000000
O43      O   O      0.51802000  0.41454000  0.54395500  0.00000000
O44      O   O      0.58534000  0.48185000  0.54225500  0.00000000
O45      O   O      0.59035000  0.53232000  0.57867500  0.00000000
O46      O   O      0.46553000  0.40695000  0.57847000  0.00000000
O47      O   O      0.51511000  0.48495000  0.54605500  0.00000000
O48      O   O      0.46840000  0.42830000  0.50134500  0.00000000
O49      O   O      0.40074000  0.40042000  0.96552500  0.00000000
O50      O   O      0.39933000  0.40056000  0.54138000  0.00000000
O52      O   O      0.51326000  0.48317000  0.95586500  0.00000000
O53      O   O      0.47783000  0.51807000  0.93829500  0.00000000
O54      O   O      0.53453000  0.59314000  0.92542000  0.00000000
O55      O   O      0.52882000  0.52908000  0.88113000  0.00000000
O56      O   O      0.48128000  0.58563000  0.95823000  0.00000000
O57      O   O      0.46791000  0.46806000  0.61972500  0.00000000
O58      O   O      0.53239000  0.53052000  0.61955000  0.00000000
O59      O   O      0.48139000  0.52188000  0.56132500  0.00000000
O60      O   O      0.40763000  0.46673000  0.57705000  0.00000000
O63      O   O      0.57006000  0.52888000  0.99872500  0.00000000
O64      O   O      0.52194000  0.55173000  0.99848500  0.00000000
O65      O   O      0.52170000  0.96919000  0.50167000  0.00000000
O66      O   O      0.48215000  0.89560000  0.54270500  0.00000000
O67      O   O      0.41177000  0.89510000  0.53970000  0.00000000
O68      O   O      0.48332000  0.89460000  0.96124500  0.00000000
O69      O   O      0.53583000  0.94006000  0.92726500  0.00000000
O70      O   O      0.53387000  0.00138000  0.88108000  0.00000000
O71      O   O      0.59194000  0.05786000  0.92198000  0.00000000
O72      O   O      0.46639000  0.05826000  0.92205000  0.00000000
O73      O   O      0.58657000  0.10300000  0.95859500  0.00000000
O74      O   O      0.51922000  0.10318000  0.95620000  0.00000000
O75      O   O      0.58426000  0.10381000  0.54347000  0.00000000
O76      O   O      0.51670000  0.10338000  0.54144000  0.00000000
O77      O   O      0.46627000  0.05823000  0.57823500  0.00000000
O78      O   O      0.58911000  0.05897000  0.58119500  0.00000000
O79      O   O      0.51336000  0.02969000  0.54485500  0.00000000
O80      O   O      0.57068000  0.03992000  0.50245000  0.00000000
O81      O   O      0.59943000  0.00017000  0.96281000  0.00000000
O82      O   O      0.59809000  0.99821000  0.53980000  0.00000000
O83      O   O      0.39982000  0.99842000  0.95933500  0.00000000
O84      O   O      0.51631000  0.02977000  0.95437000  0.00000000
O85      O   O      0.48138000  0.95871000  0.93913500  0.00000000
O86      O   O      0.40833000  0.94126000  0.92234000  0.00000000
O87      O   O      0.46990000  0.00027000  0.88061500  0.00000000
O88      O   O      0.41353000  0.89563000  0.95825500  0.00000000
O89      O   O      0.52943000  0.99910000  0.61931000  0.00000000
O90      O   O      0.46731000  0.00178000  0.61903500  0.00000000
O91      O   O      0.47842000  0.95922000  0.56206000  0.00000000
O92      O   O      0.53622000  0.94115000  0.57444000  0.00000000
O93      O   O      0.40455000  0.94057000  0.57328000  0.00000000
O94      O   O      0.40097000  0.00052000  0.53668500  0.00000000
O95      O   O      0.46987000  0.03990000  0.99839500  0.00000000
O96      O   O      0.44661000  0.96876000  0.99844500  0.00000000
