data_nu1000_modified

_audit_creation_method RASPA-1.0
_audit_creation_date 2020-3-15
_audit_author_name 'Haoyuan Chen'

_cell_length_a    39.97
_cell_length_b    40
_cell_length_c    33.16
_cell_angle_alpha 90
_cell_angle_beta  90
_cell_angle_gamma 120
_cell_volume      45913.4

_symmetry_cell_setting          triclinic
_symmetry_space_group_name_Hall 'P 1'
_symmetry_space_group_name_H-M  'P 1'
_symmetry_Int_Tables_number     1

_symmetry_equiv_pos_as_xyz 'x,y,z'

loop_
_atom_site_label
_atom_site_type_symbol
_atom_site_fract_x
_atom_site_fract_y
_atom_site_fract_z
_atom_site_charge
C1       C      0.355500000000     0.519360000000     0.086360000000     0          
C2       C      0.365790000000     0.490950000000     0.092195000000     0          
C3       C      0.346410000000     0.462370000000     0.121505000000     0          
C4       C      0.317680000000     0.462560000000     0.145020000000     0          
C5       C      0.307460000000     0.491210000000     0.139715000000     0          
C6       C      0.326610000000     0.519370000000     0.109745000000     0          
C7       C      0.345130000000     0.460450000000     0.378910000000     0          
C8       C      0.363180000000     0.487630000000     0.409800000000     0          
C9       C      0.352440000000     0.515650000000     0.416290000000     0          
C10      C      0.324370000000     0.516530000000     0.392255000000     0          
C11      C      0.306440000000     0.489720000000     0.360820000000     0          
C12      C      0.317190000000     0.461530000000     0.354765000000     0          
C13      C      0.115580000000     0.463000000000     0.377630000000     0          
C14      C      0.124980000000     0.490250000000     0.408475000000     0          
C15      C      0.163890000000     0.517540000000     0.415465000000     0          
C16      C      0.192730000000     0.517600000000     0.391950000000     0          
C17      C      0.183570000000     0.490700000000     0.360555000000     0          
C18      C      0.144460000000     0.463210000000     0.354020000000     0          
C19      C      0.115540000000     0.460160000000     0.120815000000     0          
C20      C      0.124540000000     0.487680000000     0.090325000000     0          
C21      C      0.163230000000     0.516120000000     0.084165000000     0          
C22      C      0.192260000000     0.517090000000     0.108130000000     0          
C23      C      0.183480000000     0.489950000000     0.139195000000     0          
C24      C      0.144620000000     0.461340000000     0.144930000000     0          
C25      C      0.276090000000     0.490820000000     0.336185000000     0          
C26      C      0.276510000000     0.490900000000     0.293325000000     0          
C27      C      0.308160000000     0.493410000000     0.270730000000     0          
C28      C      0.245690000000     0.491520000000     0.356310000000     0          
C29      C      0.245320000000     0.490690000000     0.271690000000     0          
C30      C      0.214910000000     0.491110000000     0.163880000000     0          
C31      C      0.214450000000     0.491040000000     0.206720000000     0          
C32      C      0.185330000000     0.493590000000     0.229315000000     0          
C33      C      0.246130000000     0.492030000000     0.143760000000     0          
C34      C      0.245360000000     0.490740000000     0.228410000000     0          
C35      C      0.276540000000     0.491530000000     0.164015000000     0          
C36      C      0.276690000000     0.491190000000     0.206860000000     0          
C37      C      0.308250000000     0.493570000000     0.229535000000     0          
C38      C      0.214790000000     0.491170000000     0.336110000000     0          
C39      C      0.214420000000     0.491110000000     0.293240000000     0          
C40      C      0.185380000000     0.493720000000     0.270515000000     0          
C41      C      0.538320000000     0.884260000000     0.122490000000     0          
C42      C      0.510930000000     0.875110000000     0.091805000000     0          
C43      C      0.483570000000     0.836260000000     0.084650000000     0          
C44      C      0.483400000000     0.807230000000     0.107925000000     0          
C45      C      0.510290000000     0.816140000000     0.139295000000     0          
C46      C      0.537950000000     0.855190000000     0.145885000000     0          
C47      C      0.538150000000     0.883750000000     0.379465000000     0          
C48      C      0.510230000000     0.874260000000     0.409650000000     0          
C49      C      0.481960000000     0.835470000000     0.415360000000     0          
C50      C      0.481630000000     0.806800000000     0.391320000000     0          
C51      C      0.509250000000     0.816070000000     0.360630000000     0          
C52      C      0.537580000000     0.855070000000     0.355220000000     0          
C53      C      0.537400000000     0.652710000000     0.378120000000     0          
C54      C      0.510010000000     0.634620000000     0.408830000000     0          
C55      C      0.482790000000     0.646310000000     0.415990000000     0          
C56      C      0.482660000000     0.675090000000     0.392535000000     0          
C57      C      0.509440000000     0.692840000000     0.360980000000     0          
C58      C      0.537070000000     0.681340000000     0.354540000000     0          
C59      C      0.539380000000     0.653690000000     0.121400000000     0          
C60      C      0.512030000000     0.635620000000     0.090680000000     0          
C61      C      0.484270000000     0.646690000000     0.084085000000     0          
C62      C      0.483710000000     0.675000000000     0.107940000000     0          
C63      C      0.510550000000     0.692820000000     0.139380000000     0          
C64      C      0.538520000000     0.681750000000     0.145485000000     0          
C65      C      0.508780000000     0.784880000000     0.336080000000     0          
C66      C      0.509090000000     0.785280000000     0.293190000000     0          
C67      C      0.506620000000     0.814310000000     0.270415000000     0          
C68      C      0.508110000000     0.753870000000     0.356320000000     0          
C69      C      0.509540000000     0.754370000000     0.271680000000     0          
C70      C      0.509610000000     0.723370000000     0.163875000000     0          
C71      C      0.509370000000     0.723060000000     0.206795000000     0          
C72      C      0.506460000000     0.691360000000     0.229545000000     0          
C73      C      0.509110000000     0.753830000000     0.143645000000     0          
C74      C      0.509730000000     0.754350000000     0.228345000000     0          
C75      C      0.509540000000     0.784800000000     0.163735000000     0          
C76      C      0.509430000000     0.785220000000     0.206645000000     0          
C77      C      0.506740000000     0.814230000000     0.229190000000     0          
C78      C      0.508780000000     0.723400000000     0.336320000000     0          
C79      C      0.508950000000     0.723050000000     0.293400000000     0          
C80      C      0.506220000000     0.691330000000     0.270790000000     0          
C81      C      0.115570000000     0.652330000000     0.122395000000     0          
C82      C      0.125000000000     0.634610000000     0.091430000000     0          
C83      C      0.163930000000     0.646370000000     0.084295000000     0          
C84      C      0.192750000000     0.675120000000     0.107830000000     0          
C85      C      0.183550000000     0.692680000000     0.139400000000     0          
C86      C      0.144430000000     0.680940000000     0.146035000000     0          
C87      C      0.115470000000     0.654400000000     0.378905000000     0          
C88      C      0.124700000000     0.636350000000     0.409725000000     0          
C89      C      0.163510000000     0.647190000000     0.416145000000     0          
C90      C      0.192420000000     0.675360000000     0.392165000000     0          
C91      C      0.183460000000     0.693320000000     0.360825000000     0          
C92      C      0.144440000000     0.682440000000     0.354820000000     0          
C93      C      0.346750000000     0.884290000000     0.377660000000     0          
C94      C      0.365920000000     0.875160000000     0.407310000000     0          
C95      C      0.355250000000     0.836420000000     0.413635000000     0          
C96      C      0.326270000000     0.807440000000     0.390420000000     0          
C97      C      0.307300000000     0.816360000000     0.360155000000     0          
C98      C      0.317830000000     0.855270000000     0.354410000000     0          
C99      C      0.344590000000     0.883970000000     0.119960000000     0          
C100     C      0.363640000000     0.874690000000     0.090305000000     0          
C101     C      0.353540000000     0.836030000000     0.084750000000     0          
C102     C      0.325200000000     0.807250000000     0.108695000000     0          
C103     C      0.306450000000     0.816310000000     0.139090000000     0          
C104     C      0.316460000000     0.855160000000     0.144125000000     0          
C105     C      0.214830000000     0.723740000000     0.336165000000     0          
C106     C      0.214390000000     0.723350000000     0.293290000000     0          
C107     C      0.185350000000     0.691640000000     0.270710000000     0          
C108     C      0.246010000000     0.754110000000     0.356240000000     0          
C109     C      0.245260000000     0.754560000000     0.271575000000     0          
C110     C      0.275980000000     0.785020000000     0.163755000000     0          
C111     C      0.276340000000     0.785480000000     0.206610000000     0          
C112     C      0.307940000000     0.814690000000     0.229150000000     0          
C113     C      0.245660000000     0.753900000000     0.143645000000     0          
C114     C      0.245180000000     0.754520000000     0.228285000000     0          
C115     C      0.214740000000     0.723410000000     0.163870000000     0          
C116     C      0.214340000000     0.723140000000     0.206745000000     0          
C117     C      0.185400000000     0.691500000000     0.229505000000     0          
C118     C      0.276390000000     0.785050000000     0.335955000000     0          
C119     C      0.276570000000     0.785470000000     0.293095000000     0          
C120     C      0.308070000000     0.814640000000     0.270360000000     0          
C121     C      0.651710000000     0.535740000000     0.123510000000     0          
C122     C      0.631520000000     0.507110000000     0.094495000000     0          
C123     C      0.641150000000     0.478250000000     0.088355000000     0          
C124     C      0.670240000000     0.477910000000     0.111085000000     0          
C125     C      0.690330000000     0.506210000000     0.140645000000     0          
C126     C      0.680650000000     0.535210000000     0.146360000000     0          
C127     C      0.650700000000     0.532910000000     0.376275000000     0          
C128     C      0.631240000000     0.504680000000     0.405920000000     0          
C129     C      0.642640000000     0.477340000000     0.413520000000     0          
C130     C      0.672250000000     0.477630000000     0.391120000000     0          
C131     C      0.691320000000     0.505230000000     0.360630000000     0          
C132     C      0.680390000000     0.533240000000     0.354060000000     0          
C133     C      0.883650000000     0.535580000000     0.376480000000     0          
C134     C      0.875290000000     0.507040000000     0.405595000000     0          
C135     C      0.836860000000     0.477950000000     0.411590000000     0          
C136     C      0.807390000000     0.477310000000     0.388685000000     0          
C137     C      0.815490000000     0.505580000000     0.359170000000     0          
C138     C      0.854130000000     0.534800000000     0.353500000000     0          
C139     C      0.882620000000     0.534100000000     0.124255000000     0          
C140     C      0.874160000000     0.506010000000     0.094585000000     0          
C141     C      0.835480000000     0.478400000000     0.086855000000     0          
C142     C      0.805940000000     0.478420000000     0.109050000000     0          
C143     C      0.814180000000     0.505890000000     0.139600000000     0          
C144     C      0.853040000000     0.534030000000     0.146410000000     0          
C145     C      0.722180000000     0.504690000000     0.336390000000     0          
C146     C      0.721610000000     0.504920000000     0.293540000000     0          
C147     C      0.689810000000     0.502410000000     0.271185000000     0          
C148     C      0.752740000000     0.504020000000     0.356225000000     0          
C149     C      0.752720000000     0.505350000000     0.271595000000     0          
C150     C      0.782580000000     0.505120000000     0.163665000000     0          
C151     C      0.783130000000     0.504940000000     0.206490000000     0          
C152     C      0.812140000000     0.501910000000     0.228785000000     0          
C153     C      0.751550000000     0.504750000000     0.143745000000     0          
C154     C      0.752490000000     0.505480000000     0.228370000000     0          
C155     C      0.721350000000     0.505450000000     0.164325000000     0          
C156     C      0.721230000000     0.505380000000     0.207125000000     0          
C157     C      0.689680000000     0.502740000000     0.230035000000     0          
C158     C      0.783620000000     0.504770000000     0.335600000000     0          
C159     C      0.783700000000     0.504870000000     0.292810000000     0          
C160     C      0.812490000000     0.501980000000     0.269935000000     0          
C161     C      0.464310000000     0.116300000000     0.124180000000     0          
C162     C      0.492280000000     0.124640000000     0.094315000000     0          
C163     C      0.520830000000     0.163170000000     0.087635000000     0          
C164     C      0.521450000000     0.192670000000     0.110470000000     0          
C165     C      0.493750000000     0.184540000000     0.140725000000     0          
C166     C      0.465060000000     0.145830000000     0.147050000000     0          
C167     C      0.464720000000     0.116080000000     0.375750000000     0          
C168     C      0.492100000000     0.124610000000     0.406295000000     0          
C169     C      0.519390000000     0.163270000000     0.414410000000     0          
C170     C      0.519640000000     0.192770000000     0.391965000000     0          
C171     C      0.492870000000     0.184490000000     0.360640000000     0          
C172     C      0.465110000000     0.145630000000     0.353260000000     0          
C173     C      0.464050000000     0.347550000000     0.376360000000     0          
C174     C      0.492200000000     0.367300000000     0.405965000000     0          
C175     C      0.520690000000     0.357260000000     0.412805000000     0          
C176     C      0.521150000000     0.328200000000     0.390195000000     0          
C177     C      0.493360000000     0.308580000000     0.360055000000     0          
C178     C      0.464680000000     0.318630000000     0.353660000000     0          
C179     C      0.464780000000     0.348180000000     0.125585000000     0          
C180     C      0.491930000000     0.366950000000     0.094835000000     0          
C181     C      0.519590000000     0.356010000000     0.086860000000     0          
C182     C      0.520250000000     0.327000000000     0.109375000000     0          
C183     C      0.493440000000     0.308280000000     0.140585000000     0          
C184     C      0.465530000000     0.319200000000     0.148050000000     0          
C185     C      0.493990000000     0.216190000000     0.336580000000     0          
C186     C      0.494490000000     0.215980000000     0.293765000000     0          
C187     C      0.497520000000     0.187110000000     0.271220000000     0          
C188     C      0.494440000000     0.247170000000     0.356700000000     0          
C189     C      0.494310000000     0.246880000000     0.272100000000     0          
C190     C      0.494570000000     0.277590000000     0.164435000000     0          
C191     C      0.494950000000     0.278170000000     0.207245000000     0          
C192     C      0.498070000000     0.310110000000     0.229795000000     0          
C193     C      0.495010000000     0.247090000000     0.144250000000     0          
C194     C      0.494470000000     0.246920000000     0.228880000000     0          
C195     C      0.494600000000     0.216240000000     0.164560000000     0          
C196     C      0.494770000000     0.216010000000     0.207365000000     0          
C197     C      0.497620000000     0.187110000000     0.230065000000     0          
C198     C      0.494210000000     0.277670000000     0.336345000000     0          
C199     C      0.494620000000     0.278120000000     0.293560000000     0          
C200     C      0.497860000000     0.310050000000     0.270935000000     0          
C201     C      0.883690000000     0.347910000000     0.123380000000     0          
C202     C      0.875240000000     0.368240000000     0.094525000000     0          
C203     C      0.836790000000     0.358990000000     0.088800000000     0          
C204     C      0.807380000000     0.330030000000     0.111645000000     0          
C205     C      0.815570000000     0.309650000000     0.140855000000     0          
C206     C      0.854230000000     0.319040000000     0.146275000000     0          
C207     C      0.883080000000     0.348090000000     0.376590000000     0          
C208     C      0.874500000000     0.368160000000     0.405635000000     0          
C209     C      0.835840000000     0.357530000000     0.412760000000     0          
C210     C      0.806400000000     0.327960000000     0.390490000000     0          
C211     C      0.814780000000     0.308350000000     0.360520000000     0          
C212     C      0.853600000000     0.318590000000     0.354350000000     0          
C213     C      0.651770000000     0.115970000000     0.375725000000     0          
C214     C      0.632270000000     0.124240000000     0.405770000000     0          
C215     C      0.642420000000     0.162760000000     0.412760000000     0          
C216     C      0.671410000000     0.192350000000     0.390130000000     0          
C217     C      0.690880000000     0.184320000000     0.359685000000     0          
C218     C      0.680640000000     0.145590000000     0.353020000000     0          
C219     C      0.651330000000     0.117260000000     0.124510000000     0          
C220     C      0.631530000000     0.125570000000     0.094860000000     0          
C221     C      0.642390000000     0.164200000000     0.087245000000     0          
C222     C      0.671910000000     0.193800000000     0.109450000000     0          
C223     C      0.691330000000     0.185710000000     0.139925000000     0          
C224     C      0.680790000000     0.146890000000     0.146675000000     0          
C225     C      0.783220000000     0.277460000000     0.336510000000     0          
C226     C      0.783760000000     0.278050000000     0.293685000000     0          
C227     C      0.812960000000     0.309860000000     0.271295000000     0          
C228     C      0.752160000000     0.246950000000     0.356500000000     0          
C229     C      0.752940000000     0.247010000000     0.271865000000     0          
C230     C      0.722250000000     0.217360000000     0.163930000000     0          
C231     C      0.721770000000     0.216740000000     0.206780000000     0          
C232     C      0.689860000000     0.187730000000     0.229205000000     0          
C233     C      0.752800000000     0.248470000000     0.143975000000     0          
C234     C      0.753040000000     0.247310000000     0.228625000000     0          
C235     C      0.783820000000     0.278570000000     0.164510000000     0          
C236     C      0.784080000000     0.278600000000     0.207295000000     0          
C237     C      0.813160000000     0.310080000000     0.230145000000     0          
C238     C      0.721810000000     0.216130000000     0.336015000000     0          
C239     C      0.721570000000     0.216090000000     0.293205000000     0          
C240     C      0.689780000000     0.187420000000     0.270360000000     0          
C241     C      0.093910000000     0.490970000000     0.432775000000     0          
C242     C      0.093700000000     0.605060000000     0.434630000000     0          
C243     C      0.093920000000     0.602720000000     0.067310000000     0          
C244     C      0.905870000000     0.505350000000     0.071420000000     0          
C245     C      0.906620000000     0.399250000000     0.069820000000     0          
C246     C      0.906090000000     0.400570000000     0.428765000000     0          
C247     C      0.093420000000     0.487920000000     0.065565000000     0          
C248     C      0.906730000000     0.507440000000     0.430260000000     0          
C249     C      0.508880000000     0.602310000000     0.432685000000     0          
C250     C      0.394460000000     0.487850000000     0.434670000000     0          
C251     C      0.397870000000     0.491810000000     0.068380000000     0          
C252     C      0.491740000000     0.398430000000     0.070815000000     0          
C253     C      0.600120000000     0.507080000000     0.070130000000     0          
C254     C      0.598650000000     0.503740000000     0.429015000000     0          
C255     C      0.511550000000     0.604190000000     0.065880000000     0          
C256     C      0.491870000000     0.398490000000     0.430285000000     0          
C257     C      0.398020000000     0.906320000000     0.431260000000     0          
C258     C      0.510030000000     0.905260000000     0.434680000000     0          
C259     C      0.509920000000     0.906190000000     0.067750000000     0          
C260     C      0.599320000000     0.093780000000     0.071585000000     0          
C261     C      0.491770000000     0.093160000000     0.069620000000     0          
C262     C      0.492560000000     0.092990000000     0.429770000000     0          
C263     C      0.395360000000     0.905750000000     0.065830000000     0          
C264     C      0.601290000000     0.092770000000     0.430445000000     0          
H1       H      0.370840000000     0.541500000000     0.063590000000     0          
H2       H      0.354200000000     0.440060000000     0.125380000000     0          
H3       H      0.302420000000     0.440020000000     0.167490000000     0          
H4       H      0.319050000000     0.541840000000     0.105530000000     0          
H5       H      0.353480000000     0.438650000000     0.374075000000     0          
H6       H      0.366800000000     0.536820000000     0.440165000000     0          
H7       H      0.316530000000     0.538730000000     0.397150000000     0          
H8       H      0.302960000000     0.439960000000     0.331165000000     0          
H9       H      0.085290000000     0.441840000000     0.372365000000     0          
H10      H      0.170950000000     0.538780000000     0.439310000000     0          
H11      H      0.222910000000     0.539260000000     0.397160000000     0          
H12      H      0.136870000000     0.441590000000     0.330435000000     0          
H13      H      0.085460000000     0.438050000000     0.125395000000     0          
H14      H      0.169910000000     0.537590000000     0.060655000000     0          
H15      H      0.222220000000     0.539640000000     0.103565000000     0          
H16      H      0.137420000000     0.439590000000     0.168300000000     0          
H17      H      0.245210000000     0.490620000000     0.389210000000     0          
H18      H      0.163210000000     0.496470000000     0.213080000000     0          
H19      H      0.333120000000     0.496180000000     0.286950000000     0          
H20      H      0.245890000000     0.491420000000     0.110860000000     0          
H21      H      0.163330000000     0.496800000000     0.286620000000     0          
H22      H      0.333280000000     0.496470000000     0.213345000000     0          
H23      H      0.559600000000     0.914460000000     0.127920000000     0          
H24      H      0.462300000000     0.829400000000     0.060855000000     0          
H25      H      0.461640000000     0.777130000000     0.102550000000     0          
H26      H      0.559600000000     0.862560000000     0.169415000000     0          
H27      H      0.560210000000     0.913930000000     0.375530000000     0          
H28      H      0.460240000000     0.828370000000     0.438720000000     0          
H29      H      0.459300000000     0.776720000000     0.395590000000     0          
H30      H      0.559710000000     0.862670000000     0.332170000000     0          
H31      H      0.558670000000     0.643710000000     0.372985000000     0          
H32      H      0.461480000000     0.631990000000     0.439775000000     0          
H33      H      0.460880000000     0.683440000000     0.397790000000     0          
H34      H      0.558670000000     0.695430000000     0.330930000000     0          
H35      H      0.561380000000     0.645540000000     0.125815000000     0          
H36      H      0.463050000000     0.632490000000     0.060195000000     0          
H37      H      0.461770000000     0.683170000000     0.102885000000     0          
H38      H      0.560280000000     0.696040000000     0.168905000000     0          
H39      H      0.508710000000     0.754300000000     0.389230000000     0          
H40      H      0.503460000000     0.666300000000     0.213390000000     0          
H41      H      0.503620000000     0.836410000000     0.286490000000     0          
H42      H      0.510240000000     0.754280000000     0.110755000000     0          
H43      H      0.502940000000     0.666170000000     0.286990000000     0          
H44      H      0.503740000000     0.836240000000     0.212930000000     0          
H45      H      0.085250000000     0.643070000000     0.127745000000     0          
H46      H      0.171000000000     0.632290000000     0.060325000000     0          
H47      H      0.222950000000     0.683760000000     0.102480000000     0          
H48      H      0.136810000000     0.694860000000     0.169725000000     0          
H49      H      0.085290000000     0.646000000000     0.374115000000     0          
H50      H      0.170420000000     0.632830000000     0.439935000000     0          
H51      H      0.222490000000     0.683250000000     0.397030000000     0          
H52      H      0.136980000000     0.696600000000     0.331245000000     0          
H53      H      0.354730000000     0.914400000000     0.373425000000     0          
H54      H      0.370360000000     0.829650000000     0.436715000000     0          
H55      H      0.318470000000     0.777400000000     0.395055000000     0          
H56      H      0.302680000000     0.862530000000     0.331780000000     0          
H57      H      0.352280000000     0.914060000000     0.123650000000     0          
H58      H      0.368600000000     0.829150000000     0.061705000000     0          
H59      H      0.317830000000     0.777260000000     0.104620000000     0          
H60      H      0.301460000000     0.862530000000     0.166825000000     0          
H61      H      0.245750000000     0.754560000000     0.389140000000     0          
H62      H      0.332810000000     0.836910000000     0.212860000000     0          
H63      H      0.163300000000     0.666620000000     0.286940000000     0          
H64      H      0.245260000000     0.754250000000     0.110750000000     0          
H65      H      0.333090000000     0.836820000000     0.286495000000     0          
H66      H      0.163410000000     0.666330000000     0.213435000000     0          
H67      H      0.644580000000     0.558510000000     0.127565000000     0          
H68      H      0.625250000000     0.456120000000     0.065725000000     0          
H69      H      0.677290000000     0.455110000000     0.106555000000     0          
H70      H      0.696500000000     0.557770000000     0.168620000000     0          
H71      H      0.642130000000     0.554490000000     0.371030000000     0          
H72      H      0.627490000000     0.455610000000     0.436720000000     0          
H73      H      0.680320000000     0.455670000000     0.396450000000     0          
H74      H      0.695630000000     0.555500000000     0.331340000000     0          
H75      H      0.913490000000     0.558500000000     0.372505000000     0          
H76      H      0.830720000000     0.455910000000     0.434280000000     0          
H77      H      0.777580000000     0.454330000000     0.393090000000     0          
H78      H      0.860740000000     0.557350000000     0.331240000000     0          
H79      H      0.912680000000     0.555970000000     0.129470000000     0          
H80      H      0.829190000000     0.456810000000     0.063580000000     0          
H81      H      0.775950000000     0.456390000000     0.103480000000     0          
H82      H      0.859850000000     0.556190000000     0.169200000000     0          
H83      H      0.753370000000     0.504610000000     0.389140000000     0          
H84      H      0.833890000000     0.498600000000     0.212335000000     0          
H85      H      0.664790000000     0.499270000000     0.287565000000     0          
H86      H      0.751720000000     0.505590000000     0.110840000000     0          
H87      H      0.834530000000     0.498800000000     0.285940000000     0          
H88      H      0.664610000000     0.499960000000     0.214035000000     0          
H89      H      0.441860000000     0.086390000000     0.128970000000     0          
H90      H      0.542500000000     0.169370000000     0.064465000000     0          
H91      H      0.544040000000     0.222520000000     0.105490000000     0          
H92      H      0.442930000000     0.139120000000     0.169860000000     0          
H93      H      0.443510000000     0.085970000000     0.369750000000     0          
H94      H      0.540550000000     0.169570000000     0.438185000000     0          
H95      H      0.541400000000     0.222760000000     0.397900000000     0          
H96      H      0.443580000000     0.138800000000     0.329730000000     0          
H97      H      0.441540000000     0.354980000000     0.371760000000     0          
H98      H      0.542440000000     0.372820000000     0.435865000000     0          
H99      H      0.543690000000     0.320840000000     0.395190000000     0          
H100     H      0.442450000000     0.303050000000     0.330980000000     0          
H101     H      0.443380000000     0.356840000000     0.131590000000     0          
H102     H      0.540670000000     0.370940000000     0.063040000000     0          
H103     H      0.542230000000     0.319050000000     0.103490000000     0          
H104     H      0.444080000000     0.304390000000     0.171630000000     0          
H105     H      0.493270000000     0.246680000000     0.389585000000     0          
H106     H      0.501530000000     0.335310000000     0.213580000000     0          
H107     H      0.500730000000     0.165220000000     0.287445000000     0          
H108     H      0.493940000000     0.246510000000     0.111355000000     0          
H109     H      0.501130000000     0.335200000000     0.287150000000     0          
H110     H      0.500870000000     0.165180000000     0.213920000000     0          
H111     H      0.913540000000     0.354760000000     0.127175000000     0          
H112     H      0.830580000000     0.375040000000     0.066360000000     0          
H113     H      0.777550000000     0.323250000000     0.107425000000     0          
H114     H      0.860890000000     0.302910000000     0.168250000000     0          
H115     H      0.913110000000     0.355940000000     0.371890000000     0          
H116     H      0.829490000000     0.373170000000     0.435580000000     0          
H117     H      0.776420000000     0.320320000000     0.395515000000     0          
H118     H      0.860410000000     0.302850000000     0.332035000000     0          
H119     H      0.644210000000     0.086060000000     0.370730000000     0          
H120     H      0.627010000000     0.168890000000     0.436060000000     0          
H121     H      0.678800000000     0.222210000000     0.395360000000     0          
H122     H      0.696020000000     0.138970000000     0.330085000000     0          
H123     H      0.643380000000     0.087280000000     0.129685000000     0          
H124     H      0.626960000000     0.170430000000     0.064065000000     0          
H125     H      0.679660000000     0.223720000000     0.103915000000     0          
H126     H      0.696280000000     0.140170000000     0.169370000000     0          
H127     H      0.752420000000     0.246360000000     0.389410000000     0          
H128     H      0.664700000000     0.165990000000     0.212895000000     0          
H129     H      0.834990000000     0.334760000000     0.287680000000     0          
H130     H      0.753300000000     0.248440000000     0.111055000000     0          
H131     H      0.664560000000     0.165430000000     0.286410000000     0          
H132     H      0.835370000000     0.335140000000     0.214090000000     0          
H133     H      0.943620000000     0.400410000000     0.498105000000     0          
H134     H      0.056290000000     0.529740000000     0.413650000000     0          
H135     H      0.027020000000     0.619240000000     0.050445000000     0          
H136     H      0.001370000000     0.601640000000     0.009370000000     0          
H137     H      0.021000000000     0.399650000000     0.047150000000     0          
H138     H      0.998840000000     0.491820000000     0.122145000000     0          
H139     H      0.978610000000     0.528570000000     0.133270000000     0          
H140     H      0.973370000000     0.445020000000     0.127920000000     0          
H141     H      0.943690000000     0.543220000000     0.002075000000     0          
H142     H      0.056170000000     0.526200000000     0.086670000000     0          
H143     H      0.021530000000     0.621320000000     0.453190000000     0          
H144     H      0.001170000000     0.399470000000     0.490820000000     0          
H145     H      0.026990000000     0.407600000000     0.449875000000     0          
H146     H      0.973580000000     0.528380000000     0.372275000000     0          
H147     H      0.978740000000     0.450070000000     0.366840000000     0          
H148     H      0.998980000000     0.506910000000     0.378090000000     0          
H149     H      0.597760000000     0.539080000000     0.499050000000     0          
H150     H      0.469840000000     0.526230000000     0.414355000000     0          
H151     H      0.397410000000     0.398560000000     0.008970000000     0          
H152     H      0.399720000000     0.377820000000     0.051135000000     0          
H153     H      0.505880000000     0.504240000000     0.122340000000     0          
H154     H      0.448620000000     0.470990000000     0.134670000000     0          
H155     H      0.552590000000     0.525650000000     0.129235000000     0          
H156     H      0.457170000000     0.400490000000     0.000900000000     0          
H157     H      0.474360000000     0.531070000000     0.085130000000     0          
H158     H      0.377860000000     0.399830000000     0.454575000000     0          
H159     H      0.470990000000     0.444650000000     0.372270000000     0          
H160     H      0.549180000000     0.527390000000     0.366860000000     0          
H161     H      0.492580000000     0.491510000000     0.378295000000     0          
H162     H      0.458660000000     0.056490000000     0.498075000000     0          
H163     H      0.473530000000     0.942420000000     0.415365000000     0          
H164     H      0.592780000000     0.972740000000     0.048615000000     0          
H165     H      0.600770000000     0.998670000000     0.008095000000     0          
H166     H      0.398390000000     0.021420000000     0.048245000000     0          
H167     H      0.493530000000     0.001310000000     0.121845000000     0          
H168     H      0.550080000000     0.021020000000     0.133465000000     0          
H169     H      0.472790000000     0.027430000000     0.127340000000     0          
H170     H      0.598490000000     0.056730000000     0.002840000000     0          
H171     H      0.470020000000     0.943030000000     0.085960000000     0          
H172     H      0.622950000000     0.022080000000     0.452565000000     0          
H173     H      0.399940000000     0.021240000000     0.448950000000     0          
H174     H      0.397290000000     0.998740000000     0.490945000000     0          
H175     H      0.554160000000     0.026640000000     0.371945000000     0          
H176     H      0.450540000000     0.978540000000     0.365175000000     0          
H177     H      0.507360000000     0.001370000000     0.378255000000     0          
Zr1      Zr     0.927800000000     0.463900000000     0.000065000000     0          
Zr2      Zr     0.000810000000     0.547220000000     0.448705000000     0          
Zr3      Zr     0.999500000000     0.542260000000     0.056555000000     0          
Zr4      Zr     0.000650000000     0.453350000000     0.051495000000     0          
Zr5      Zr     0.072640000000     0.536130000000     0.000160000000     0          
Zr6      Zr     0.999560000000     0.457130000000     0.443630000000     0          
Zr7      Zr     0.534860000000     0.462940000000     0.000395000000     0          
Zr8      Zr     0.452340000000     0.453110000000     0.448720000000     0          
Zr9      Zr     0.455890000000     0.456170000000     0.056725000000     0          
Z0       Zr     0.545420000000     0.545710000000     0.051885000000     0          
Zr11     Zr     0.463700000000     0.536100000000     0.499925000000     0          
Z1       Zr     0.543290000000     0.542450000000     0.443410000000     0          
Zr13     Zr     0.535670000000     0.071290000000     0.499925000000     0          
Zr14     Zr     0.546450000000     0.998500000000     0.448555000000     0          
Zr15     Zr     0.542880000000     0.000090000000     0.056650000000     0          
Zr16     Zr     0.452140000000     0.998660000000     0.051550000000     0          
Zr17     Zr     0.463480000000     0.926900000000     0.000375000000     0          
Zr18     Zr     0.457170000000     0.999560000000     0.443530000000     0          
O1       O      0.030520000000     0.551660000000     0.001770000000     0          
O2       O      0.104530000000     0.585560000000     0.042210000000     0          
O3       O      0.103910000000     0.515060000000     0.039755000000     0          
O4       O      0.104200000000     0.588430000000     0.460445000000     0          
O5       O      0.058790000000     0.596580000000     0.427860000000     0          
O6       O      0.999020000000     0.533340000000     0.380850000000     0          
O7       O      0.941660000000     0.532130000000     0.421150000000     0          
O8       O      0.940960000000     0.411190000000     0.418970000000     0          
O9       O      0.896250000000     0.482950000000     0.458950000000     0          
O10      O      0.895820000000     0.415420000000     0.456840000000     0          
O11      O      0.895670000000     0.480330000000     0.043255000000     0          
O12      O      0.896110000000     0.413250000000     0.041120000000     0          
O13      O      0.941540000000     0.409470000000     0.078915000000     0          
O14      O      0.940720000000     0.529620000000     0.081240000000     0          
O15      O      0.969590000000     0.483360000000     0.044505000000     0          
O16      O      0.959890000000     0.531510000000     0.002110000000     0          
O17      O      0.999680000000     0.598520000000     0.464810000000     0          
O18      O      0.001510000000     0.599370000000     0.041315000000     0          
O19      O      0.001450000000     0.401960000000     0.458905000000     0          
O20      O      0.969700000000     0.486200000000     0.455715000000     0          
O21      O      0.040500000000     0.521840000000     0.437860000000     0          
O22      O      0.059020000000     0.464580000000     0.426140000000     0          
O23      O      0.000720000000     0.470680000000     0.380965000000     0          
O24      O      0.104530000000     0.518580000000     0.458045000000     0          
O25      O      0.000610000000     0.529920000000     0.119195000000     0          
O26      O      0.998860000000     0.465450000000     0.119430000000     0          
O27      O      0.040430000000     0.518350000000     0.062435000000     0          
O28      O      0.059040000000     0.594220000000     0.073965000000     0          
O29      O      0.058510000000     0.461590000000     0.072450000000     0          
O30      O      0.999310000000     0.400810000000     0.035400000000     0          
O31      O      0.959840000000     0.428320000000     0.498060000000     0          
O32      O      0.030470000000     0.478540000000     0.498505000000     0          
O33      O      0.447030000000     0.477750000000     0.002100000000     0          
O34      O      0.413910000000     0.518330000000     0.041755000000     0          
O35      O      0.484930000000     0.588380000000     0.039215000000     0          
O36      O      0.411300000000     0.515150000000     0.460265000000     0          
O37      O      0.402830000000     0.461350000000     0.427970000000     0          
O38      O      0.466040000000     0.465090000000     0.380920000000     0          
O39      O      0.467260000000     0.408800000000     0.421025000000     0          
O40      O      0.587820000000     0.527630000000     0.418650000000     0          
O41      O      0.516370000000     0.412580000000     0.459020000000     0          
O42      O      0.584150000000     0.479150000000     0.457630000000     0          
O43      O      0.518020000000     0.414540000000     0.043955000000     0          
O44      O      0.585340000000     0.481850000000     0.042255000000     0          
O45      O      0.590350000000     0.532320000000     0.078675000000     0          
O46      O      0.465530000000     0.406950000000     0.078470000000     0          
O47      O      0.515110000000     0.484950000000     0.046055000000     0          
O48      O      0.468400000000     0.428300000000     0.001345000000     0          
O49      O      0.400740000000     0.400420000000     0.465525000000     0          
O50      O      0.399330000000     0.400560000000     0.041380000000     0          
O52      O      0.513260000000     0.483170000000     0.455865000000     0          
O53      O      0.477830000000     0.518070000000     0.438295000000     0          
O54      O      0.534530000000     0.593140000000     0.425420000000     0          
O55      O      0.528820000000     0.529080000000     0.381130000000     0          
O56      O      0.481280000000     0.585630000000     0.458230000000     0          
O57      O      0.467910000000     0.468060000000     0.119725000000     0          
O58      O      0.532390000000     0.530520000000     0.119550000000     0          
O59      O      0.481390000000     0.521880000000     0.061325000000     0          
O60      O      0.407630000000     0.466730000000     0.077050000000     0          
O63      O      0.570060000000     0.528880000000     0.498725000000     0          
O64      O      0.521940000000     0.551730000000     0.498485000000     0          
O65      O      0.521700000000     0.969190000000     0.001670000000     0          
O66      O      0.482150000000     0.895600000000     0.042705000000     0          
O67      O      0.411770000000     0.895100000000     0.039700000000     0          
O68      O      0.483320000000     0.894600000000     0.461245000000     0          
O69      O      0.535830000000     0.940060000000     0.427265000000     0          
O70      O      0.533870000000     0.001380000000     0.381080000000     0          
O71      O      0.591940000000     0.057860000000     0.421980000000     0          
O72      O      0.466390000000     0.058260000000     0.422050000000     0          
O73      O      0.586570000000     0.103000000000     0.458595000000     0          
O74      O      0.519220000000     0.103180000000     0.456200000000     0          
O75      O      0.584260000000     0.103810000000     0.043470000000     0          
O76      O      0.516700000000     0.103380000000     0.041440000000     0          
O77      O      0.466270000000     0.058230000000     0.078235000000     0          
O78      O      0.589110000000     0.058970000000     0.081195000000     0          
O79      O      0.513360000000     0.029690000000     0.044855000000     0          
O80      O      0.570680000000     0.039920000000     0.002450000000     0          
O81      O      0.599430000000     0.000170000000     0.462810000000     0          
O82      O      0.598090000000     0.998210000000     0.039800000000     0          
O83      O      0.399820000000     0.998420000000     0.459335000000     0          
O84      O      0.516310000000     0.029770000000     0.454370000000     0          
O85      O      0.481380000000     0.958710000000     0.439135000000     0          
O86      O      0.408330000000     0.941260000000     0.422340000000     0          
O87      O      0.469900000000     0.000270000000     0.380615000000     0          
O88      O      0.413530000000     0.895630000000     0.458255000000     0          
O89      O      0.529430000000     0.999100000000     0.119310000000     0          
O90      O      0.467310000000     0.001780000000     0.119035000000     0          
O91      O      0.478420000000     0.959220000000     0.062060000000     0          
O92      O      0.536220000000     0.941150000000     0.074440000000     0          
O93      O      0.404550000000     0.940570000000     0.073280000000     0          
O94      O      0.400970000000     0.000520000000     0.036685000000     0          
O95      O      0.469870000000     0.039900000000     0.498395000000     0          
O96      O      0.446610000000     0.968760000000     0.498445000000     0          
C1       C      0.355500000000     0.519360000000     0.586360000000     0          
C2       C      0.365790000000     0.490950000000     0.592195000000     0          
C3       C      0.346410000000     0.462370000000     0.621505000000     0          
C4       C      0.317680000000     0.462560000000     0.645020000000     0          
C5       C      0.307460000000     0.491210000000     0.639715000000     0          
C6       C      0.326610000000     0.519370000000     0.609745000000     0          
C7       C      0.345130000000     0.460450000000     0.878910000000     0          
C8       C      0.363180000000     0.487630000000     0.909800000000     0          
C9       C      0.352440000000     0.515650000000     0.916290000000     0          
C10      C      0.324370000000     0.516530000000     0.892255000000     0          
C11      C      0.306440000000     0.489720000000     0.860820000000     0          
C12      C      0.317190000000     0.461530000000     0.854765000000     0          
C13      C      0.115580000000     0.463000000000     0.877630000000     0          
C14      C      0.124980000000     0.490250000000     0.908475000000     0          
C15      C      0.163890000000     0.517540000000     0.915465000000     0          
C16      C      0.192730000000     0.517600000000     0.891950000000     0          
C17      C      0.183570000000     0.490700000000     0.860555000000     0          
C18      C      0.144460000000     0.463210000000     0.854020000000     0          
C19      C      0.115540000000     0.460160000000     0.620815000000     0          
C20      C      0.124540000000     0.487680000000     0.590325000000     0          
C21      C      0.163230000000     0.516120000000     0.584165000000     0          
C22      C      0.192260000000     0.517090000000     0.608130000000     0          
C23      C      0.183480000000     0.489950000000     0.639195000000     0          
C24      C      0.144620000000     0.461340000000     0.644930000000     0          
C25      C      0.276090000000     0.490820000000     0.836185000000     0          
C26      C      0.276510000000     0.490900000000     0.793325000000     0          
C27      C      0.308160000000     0.493410000000     0.770730000000     0          
C28      C      0.245690000000     0.491520000000     0.856310000000     0          
C29      C      0.245320000000     0.490690000000     0.771690000000     0          
C30      C      0.214910000000     0.491110000000     0.663880000000     0          
C31      C      0.214450000000     0.491040000000     0.706720000000     0          
C32      C      0.185330000000     0.493590000000     0.729315000000     0          
C33      C      0.246130000000     0.492030000000     0.643760000000     0          
C34      C      0.245360000000     0.490740000000     0.728410000000     0          
C35      C      0.276540000000     0.491530000000     0.664015000000     0          
C36      C      0.276690000000     0.491190000000     0.706860000000     0          
C37      C      0.308250000000     0.493570000000     0.729535000000     0          
C38      C      0.214790000000     0.491170000000     0.836110000000     0          
C39      C      0.214420000000     0.491110000000     0.793240000000     0          
C40      C      0.185380000000     0.493720000000     0.770515000000     0          
C41      C      0.538320000000     0.884260000000     0.622490000000     0          
C42      C      0.510930000000     0.875110000000     0.591805000000     0          
C43      C      0.483570000000     0.836260000000     0.584650000000     0          
C44      C      0.483400000000     0.807230000000     0.607925000000     0          
C45      C      0.510290000000     0.816140000000     0.639295000000     0          
C46      C      0.537950000000     0.855190000000     0.645885000000     0          
C47      C      0.538150000000     0.883750000000     0.879465000000     0          
C48      C      0.510230000000     0.874260000000     0.909650000000     0          
C49      C      0.481960000000     0.835470000000     0.915360000000     0          
C50      C      0.481630000000     0.806800000000     0.891320000000     0          
C51      C      0.509250000000     0.816070000000     0.860630000000     0          
C52      C      0.537580000000     0.855070000000     0.855220000000     0          
C53      C      0.537400000000     0.652710000000     0.878120000000     0          
C54      C      0.510010000000     0.634620000000     0.908830000000     0          
C55      C      0.482790000000     0.646310000000     0.915990000000     0          
C56      C      0.482660000000     0.675090000000     0.892535000000     0          
C57      C      0.509440000000     0.692840000000     0.860980000000     0          
C58      C      0.537070000000     0.681340000000     0.854540000000     0          
C59      C      0.539380000000     0.653690000000     0.621400000000     0          
C60      C      0.512030000000     0.635620000000     0.590680000000     0          
C61      C      0.484270000000     0.646690000000     0.584085000000     0          
C62      C      0.483710000000     0.675000000000     0.607940000000     0          
C63      C      0.510550000000     0.692820000000     0.639380000000     0          
C64      C      0.538520000000     0.681750000000     0.645485000000     0          
C65      C      0.508780000000     0.784880000000     0.836080000000     0          
C66      C      0.509090000000     0.785280000000     0.793190000000     0          
C67      C      0.506620000000     0.814310000000     0.770415000000     0          
C68      C      0.508110000000     0.753870000000     0.856320000000     0          
C69      C      0.509540000000     0.754370000000     0.771680000000     0          
C70      C      0.509610000000     0.723370000000     0.663875000000     0          
C71      C      0.509370000000     0.723060000000     0.706795000000     0          
C72      C      0.506460000000     0.691360000000     0.729545000000     0          
C73      C      0.509110000000     0.753830000000     0.643645000000     0          
C74      C      0.509730000000     0.754350000000     0.728345000000     0          
C75      C      0.509540000000     0.784800000000     0.663735000000     0          
C76      C      0.509430000000     0.785220000000     0.706645000000     0          
C77      C      0.506740000000     0.814230000000     0.729190000000     0          
C78      C      0.508780000000     0.723400000000     0.836320000000     0          
C79      C      0.508950000000     0.723050000000     0.793400000000     0          
C80      C      0.506220000000     0.691330000000     0.770790000000     0          
C81      C      0.115570000000     0.652330000000     0.622395000000     0          
C82      C      0.125000000000     0.634610000000     0.591430000000     0          
C83      C      0.163930000000     0.646370000000     0.584295000000     0          
C84      C      0.192750000000     0.675120000000     0.607830000000     0          
C85      C      0.183550000000     0.692680000000     0.639400000000     0          
C86      C      0.144430000000     0.680940000000     0.646035000000     0          
C87      C      0.115470000000     0.654400000000     0.878905000000     0          
C88      C      0.124700000000     0.636350000000     0.909725000000     0          
C89      C      0.163510000000     0.647190000000     0.916145000000     0          
C90      C      0.192420000000     0.675360000000     0.892165000000     0          
C91      C      0.183460000000     0.693320000000     0.860825000000     0          
C92      C      0.144440000000     0.682440000000     0.854820000000     0          
C93      C      0.346750000000     0.884290000000     0.877660000000     0          
C94      C      0.365920000000     0.875160000000     0.907310000000     0          
C95      C      0.355250000000     0.836420000000     0.913635000000     0          
C96      C      0.326270000000     0.807440000000     0.890420000000     0          
C97      C      0.307300000000     0.816360000000     0.860155000000     0          
C98      C      0.317830000000     0.855270000000     0.854410000000     0          
C99      C      0.344590000000     0.883970000000     0.619960000000     0          
C100     C      0.363640000000     0.874690000000     0.590305000000     0          
C101     C      0.353540000000     0.836030000000     0.584750000000     0          
C102     C      0.325200000000     0.807250000000     0.608695000000     0          
C103     C      0.306450000000     0.816310000000     0.639090000000     0          
C104     C      0.316460000000     0.855160000000     0.644125000000     0          
C105     C      0.214830000000     0.723740000000     0.836165000000     0          
C106     C      0.214390000000     0.723350000000     0.793290000000     0          
C107     C      0.185350000000     0.691640000000     0.770710000000     0          
C108     C      0.246010000000     0.754110000000     0.856240000000     0          
C109     C      0.245260000000     0.754560000000     0.771575000000     0          
C110     C      0.275980000000     0.785020000000     0.663755000000     0          
C111     C      0.276340000000     0.785480000000     0.706610000000     0          
C112     C      0.307940000000     0.814690000000     0.729150000000     0          
C113     C      0.245660000000     0.753900000000     0.643645000000     0          
C114     C      0.245180000000     0.754520000000     0.728285000000     0          
C115     C      0.214740000000     0.723410000000     0.663870000000     0          
C116     C      0.214340000000     0.723140000000     0.706745000000     0          
C117     C      0.185400000000     0.691500000000     0.729505000000     0          
C118     C      0.276390000000     0.785050000000     0.835955000000     0          
C119     C      0.276570000000     0.785470000000     0.793095000000     0          
C120     C      0.308070000000     0.814640000000     0.770360000000     0          
C121     C      0.651710000000     0.535740000000     0.623510000000     0          
C122     C      0.631520000000     0.507110000000     0.594495000000     0          
C123     C      0.641150000000     0.478250000000     0.588355000000     0          
C124     C      0.670240000000     0.477910000000     0.611085000000     0          
C125     C      0.690330000000     0.506210000000     0.640645000000     0          
C126     C      0.680650000000     0.535210000000     0.646360000000     0          
C127     C      0.650700000000     0.532910000000     0.876275000000     0          
C128     C      0.631240000000     0.504680000000     0.905920000000     0          
C129     C      0.642640000000     0.477340000000     0.913520000000     0          
C130     C      0.672250000000     0.477630000000     0.891120000000     0          
C131     C      0.691320000000     0.505230000000     0.860630000000     0          
C132     C      0.680390000000     0.533240000000     0.854060000000     0          
C133     C      0.883650000000     0.535580000000     0.876480000000     0          
C134     C      0.875290000000     0.507040000000     0.905595000000     0          
C135     C      0.836860000000     0.477950000000     0.911590000000     0          
C136     C      0.807390000000     0.477310000000     0.888685000000     0          
C137     C      0.815490000000     0.505580000000     0.859170000000     0          
C138     C      0.854130000000     0.534800000000     0.853500000000     0          
C139     C      0.882620000000     0.534100000000     0.624255000000     0          
C140     C      0.874160000000     0.506010000000     0.594585000000     0          
C141     C      0.835480000000     0.478400000000     0.586855000000     0          
C142     C      0.805940000000     0.478420000000     0.609050000000     0          
C143     C      0.814180000000     0.505890000000     0.639600000000     0          
C144     C      0.853040000000     0.534030000000     0.646410000000     0          
C145     C      0.722180000000     0.504690000000     0.836390000000     0          
C146     C      0.721610000000     0.504920000000     0.793540000000     0          
C147     C      0.689810000000     0.502410000000     0.771185000000     0          
C148     C      0.752740000000     0.504020000000     0.856225000000     0          
C149     C      0.752720000000     0.505350000000     0.771595000000     0          
C150     C      0.782580000000     0.505120000000     0.663665000000     0          
C151     C      0.783130000000     0.504940000000     0.706490000000     0          
C152     C      0.812140000000     0.501910000000     0.728785000000     0          
C153     C      0.751550000000     0.504750000000     0.643745000000     0          
C154     C      0.752490000000     0.505480000000     0.728370000000     0          
C155     C      0.721350000000     0.505450000000     0.664325000000     0          
C156     C      0.721230000000     0.505380000000     0.707125000000     0          
C157     C      0.689680000000     0.502740000000     0.730035000000     0          
C158     C      0.783620000000     0.504770000000     0.835600000000     0          
C159     C      0.783700000000     0.504870000000     0.792810000000     0          
C160     C      0.812490000000     0.501980000000     0.769935000000     0          
C161     C      0.464310000000     0.116300000000     0.624180000000     0          
C162     C      0.492280000000     0.124640000000     0.594315000000     0          
C163     C      0.520830000000     0.163170000000     0.587635000000     0          
C164     C      0.521450000000     0.192670000000     0.610470000000     0          
C165     C      0.493750000000     0.184540000000     0.640725000000     0          
C166     C      0.465060000000     0.145830000000     0.647050000000     0          
C167     C      0.464720000000     0.116080000000     0.875750000000     0          
C168     C      0.492100000000     0.124610000000     0.906295000000     0          
C169     C      0.519390000000     0.163270000000     0.914410000000     0          
C170     C      0.519640000000     0.192770000000     0.891965000000     0          
C171     C      0.492870000000     0.184490000000     0.860640000000     0          
C172     C      0.465110000000     0.145630000000     0.853260000000     0          
C173     C      0.464050000000     0.347550000000     0.876360000000     0          
C174     C      0.492200000000     0.367300000000     0.905965000000     0          
C175     C      0.520690000000     0.357260000000     0.912805000000     0          
C176     C      0.521150000000     0.328200000000     0.890195000000     0          
C177     C      0.493360000000     0.308580000000     0.860055000000     0          
C178     C      0.464680000000     0.318630000000     0.853660000000     0          
C179     C      0.464780000000     0.348180000000     0.625585000000     0          
C180     C      0.491930000000     0.366950000000     0.594835000000     0          
C181     C      0.519590000000     0.356010000000     0.586860000000     0          
C182     C      0.520250000000     0.327000000000     0.609375000000     0          
C183     C      0.493440000000     0.308280000000     0.640585000000     0          
C184     C      0.465530000000     0.319200000000     0.648050000000     0          
C185     C      0.493990000000     0.216190000000     0.836580000000     0          
C186     C      0.494490000000     0.215980000000     0.793765000000     0          
C187     C      0.497520000000     0.187110000000     0.771220000000     0          
C188     C      0.494440000000     0.247170000000     0.856700000000     0          
C189     C      0.494310000000     0.246880000000     0.772100000000     0          
C190     C      0.494570000000     0.277590000000     0.664435000000     0          
C191     C      0.494950000000     0.278170000000     0.707245000000     0          
C192     C      0.498070000000     0.310110000000     0.729795000000     0          
C193     C      0.495010000000     0.247090000000     0.644250000000     0          
C194     C      0.494470000000     0.246920000000     0.728880000000     0          
C195     C      0.494600000000     0.216240000000     0.664560000000     0          
C196     C      0.494770000000     0.216010000000     0.707365000000     0          
C197     C      0.497620000000     0.187110000000     0.730065000000     0          
C198     C      0.494210000000     0.277670000000     0.836345000000     0          
C199     C      0.494620000000     0.278120000000     0.793560000000     0          
C200     C      0.497860000000     0.310050000000     0.770935000000     0          
C201     C      0.883690000000     0.347910000000     0.623380000000     0          
C202     C      0.875240000000     0.368240000000     0.594525000000     0          
C203     C      0.836790000000     0.358990000000     0.588800000000     0          
C204     C      0.807380000000     0.330030000000     0.611645000000     0          
C205     C      0.815570000000     0.309650000000     0.640855000000     0          
C206     C      0.854230000000     0.319040000000     0.646275000000     0          
C207     C      0.883080000000     0.348090000000     0.876590000000     0          
C208     C      0.874500000000     0.368160000000     0.905635000000     0          
C209     C      0.835840000000     0.357530000000     0.912760000000     0          
C210     C      0.806400000000     0.327960000000     0.890490000000     0          
C211     C      0.814780000000     0.308350000000     0.860520000000     0          
C212     C      0.853600000000     0.318590000000     0.854350000000     0          
C213     C      0.651770000000     0.115970000000     0.875725000000     0          
C214     C      0.632270000000     0.124240000000     0.905770000000     0          
C215     C      0.642420000000     0.162760000000     0.912760000000     0          
C216     C      0.671410000000     0.192350000000     0.890130000000     0          
C217     C      0.690880000000     0.184320000000     0.859685000000     0          
C218     C      0.680640000000     0.145590000000     0.853020000000     0          
C219     C      0.651330000000     0.117260000000     0.624510000000     0          
C220     C      0.631530000000     0.125570000000     0.594860000000     0          
C221     C      0.642390000000     0.164200000000     0.587245000000     0          
C222     C      0.671910000000     0.193800000000     0.609450000000     0          
C223     C      0.691330000000     0.185710000000     0.639925000000     0          
C224     C      0.680790000000     0.146890000000     0.646675000000     0          
C225     C      0.783220000000     0.277460000000     0.836510000000     0          
C226     C      0.783760000000     0.278050000000     0.793685000000     0          
C227     C      0.812960000000     0.309860000000     0.771295000000     0          
C228     C      0.752160000000     0.246950000000     0.856500000000     0          
C229     C      0.752940000000     0.247010000000     0.771865000000     0          
C230     C      0.722250000000     0.217360000000     0.663930000000     0          
C231     C      0.721770000000     0.216740000000     0.706780000000     0          
C232     C      0.689860000000     0.187730000000     0.729205000000     0          
C233     C      0.752800000000     0.248470000000     0.643975000000     0          
C234     C      0.753040000000     0.247310000000     0.728625000000     0          
C235     C      0.783820000000     0.278570000000     0.664510000000     0          
C236     C      0.784080000000     0.278600000000     0.707295000000     0          
C237     C      0.813160000000     0.310080000000     0.730145000000     0          
C238     C      0.721810000000     0.216130000000     0.836015000000     0          
C239     C      0.721570000000     0.216090000000     0.793205000000     0          
C240     C      0.689780000000     0.187420000000     0.770360000000     0          
C241     C      0.093910000000     0.490970000000     0.932775000000     0          
C242     C      0.093700000000     0.605060000000     0.934630000000     0          
C243     C      0.093920000000     0.602720000000     0.567310000000     0          
C244     C      0.905870000000     0.505350000000     0.571420000000     0          
C245     C      0.906620000000     0.399250000000     0.569820000000     0          
C246     C      0.906090000000     0.400570000000     0.928765000000     0          
C247     C      0.093420000000     0.487920000000     0.565565000000     0          
C248     C      0.906730000000     0.507440000000     0.930260000000     0          
C249     C      0.508880000000     0.602310000000     0.932685000000     0          
C250     C      0.394460000000     0.487850000000     0.934670000000     0          
C251     C      0.397870000000     0.491810000000     0.568380000000     0          
C252     C      0.491740000000     0.398430000000     0.570815000000     0          
C253     C      0.600120000000     0.507080000000     0.570130000000     0          
C254     C      0.598650000000     0.503740000000     0.929015000000     0          
C255     C      0.511550000000     0.604190000000     0.565880000000     0          
C256     C      0.491870000000     0.398490000000     0.930285000000     0          
C257     C      0.398020000000     0.906320000000     0.931260000000     0          
C258     C      0.510030000000     0.905260000000     0.934680000000     0          
C259     C      0.509920000000     0.906190000000     0.567750000000     0          
C260     C      0.599320000000     0.093780000000     0.571585000000     0          
C261     C      0.491770000000     0.093160000000     0.569620000000     0          
C262     C      0.492560000000     0.092990000000     0.929770000000     0          
C263     C      0.395360000000     0.905750000000     0.565830000000     0          
C264     C      0.601290000000     0.092770000000     0.930445000000     0          
H1       H      0.370840000000     0.541500000000     0.563590000000     0          
H2       H      0.354200000000     0.440060000000     0.625380000000     0          
H3       H      0.302420000000     0.440020000000     0.667490000000     0          
H4       H      0.319050000000     0.541840000000     0.605530000000     0          
H5       H      0.353480000000     0.438650000000     0.874075000000     0          
H6       H      0.366800000000     0.536820000000     0.940165000000     0          
H7       H      0.316530000000     0.538730000000     0.897150000000     0          
H8       H      0.302960000000     0.439960000000     0.831165000000     0          
H9       H      0.085290000000     0.441840000000     0.872365000000     0          
H10      H      0.170950000000     0.538780000000     0.939310000000     0          
H11      H      0.222910000000     0.539260000000     0.897160000000     0          
H12      H      0.136870000000     0.441590000000     0.830435000000     0          
H13      H      0.085460000000     0.438050000000     0.625395000000     0          
H14      H      0.169910000000     0.537590000000     0.560655000000     0          
H15      H      0.222220000000     0.539640000000     0.603565000000     0          
H16      H      0.137420000000     0.439590000000     0.668300000000     0          
H17      H      0.245210000000     0.490620000000     0.889210000000     0          
H18      H      0.163210000000     0.496470000000     0.713080000000     0          
H19      H      0.333120000000     0.496180000000     0.786950000000     0          
H20      H      0.245890000000     0.491420000000     0.610860000000     0          
H21      H      0.163330000000     0.496800000000     0.786620000000     0          
H22      H      0.333280000000     0.496470000000     0.713345000000     0          
H23      H      0.559600000000     0.914460000000     0.627920000000     0          
H24      H      0.462300000000     0.829400000000     0.560855000000     0          
H25      H      0.461640000000     0.777130000000     0.602550000000     0          
H26      H      0.559600000000     0.862560000000     0.669415000000     0          
H27      H      0.560210000000     0.913930000000     0.875530000000     0          
H28      H      0.460240000000     0.828370000000     0.938720000000     0          
H29      H      0.459300000000     0.776720000000     0.895590000000     0          
H30      H      0.559710000000     0.862670000000     0.832170000000     0          
H31      H      0.558670000000     0.643710000000     0.872985000000     0          
H32      H      0.461480000000     0.631990000000     0.939775000000     0          
H33      H      0.460880000000     0.683440000000     0.897790000000     0          
H34      H      0.558670000000     0.695430000000     0.830930000000     0          
H35      H      0.561380000000     0.645540000000     0.625815000000     0          
H36      H      0.463050000000     0.632490000000     0.560195000000     0          
H37      H      0.461770000000     0.683170000000     0.602885000000     0          
H38      H      0.560280000000     0.696040000000     0.668905000000     0          
H39      H      0.508710000000     0.754300000000     0.889230000000     0          
H40      H      0.503460000000     0.666300000000     0.713390000000     0          
H41      H      0.503620000000     0.836410000000     0.786490000000     0          
H42      H      0.510240000000     0.754280000000     0.610755000000     0          
H43      H      0.502940000000     0.666170000000     0.786990000000     0          
H44      H      0.503740000000     0.836240000000     0.712930000000     0          
H45      H      0.085250000000     0.643070000000     0.627745000000     0          
H46      H      0.171000000000     0.632290000000     0.560325000000     0          
H47      H      0.222950000000     0.683760000000     0.602480000000     0          
H48      H      0.136810000000     0.694860000000     0.669725000000     0          
H49      H      0.085290000000     0.646000000000     0.874115000000     0          
H50      H      0.170420000000     0.632830000000     0.939935000000     0          
H51      H      0.222490000000     0.683250000000     0.897030000000     0          
H52      H      0.136980000000     0.696600000000     0.831245000000     0          
H53      H      0.354730000000     0.914400000000     0.873425000000     0          
H54      H      0.370360000000     0.829650000000     0.936715000000     0          
H55      H      0.318470000000     0.777400000000     0.895055000000     0          
H56      H      0.302680000000     0.862530000000     0.831780000000     0          
H57      H      0.352280000000     0.914060000000     0.623650000000     0          
H58      H      0.368600000000     0.829150000000     0.561705000000     0          
H59      H      0.317830000000     0.777260000000     0.604620000000     0          
H60      H      0.301460000000     0.862530000000     0.666825000000     0          
H61      H      0.245750000000     0.754560000000     0.889140000000     0          
H62      H      0.332810000000     0.836910000000     0.712860000000     0          
H63      H      0.163300000000     0.666620000000     0.786940000000     0          
H64      H      0.245260000000     0.754250000000     0.610750000000     0          
H65      H      0.333090000000     0.836820000000     0.786495000000     0          
H66      H      0.163410000000     0.666330000000     0.713435000000     0          
H67      H      0.644580000000     0.558510000000     0.627565000000     0          
H68      H      0.625250000000     0.456120000000     0.565725000000     0          
H69      H      0.677290000000     0.455110000000     0.606555000000     0          
H70      H      0.696500000000     0.557770000000     0.668620000000     0          
H71      H      0.642130000000     0.554490000000     0.871030000000     0          
H72      H      0.627490000000     0.455610000000     0.936720000000     0          
H73      H      0.680320000000     0.455670000000     0.896450000000     0          
H74      H      0.695630000000     0.555500000000     0.831340000000     0          
H75      H      0.913490000000     0.558500000000     0.872505000000     0          
H76      H      0.830720000000     0.455910000000     0.934280000000     0          
H77      H      0.777580000000     0.454330000000     0.893090000000     0          
H78      H      0.860740000000     0.557350000000     0.831240000000     0          
H79      H      0.912680000000     0.555970000000     0.629470000000     0          
H80      H      0.829190000000     0.456810000000     0.563580000000     0          
H81      H      0.775950000000     0.456390000000     0.603480000000     0          
H82      H      0.859850000000     0.556190000000     0.669200000000     0          
H83      H      0.753370000000     0.504610000000     0.889140000000     0          
H84      H      0.833890000000     0.498600000000     0.712335000000     0          
H85      H      0.664790000000     0.499270000000     0.787565000000     0          
H86      H      0.751720000000     0.505590000000     0.610840000000     0          
H87      H      0.834530000000     0.498800000000     0.785940000000     0          
H88      H      0.664610000000     0.499960000000     0.714035000000     0          
H89      H      0.441860000000     0.086390000000     0.628970000000     0          
H90      H      0.542500000000     0.169370000000     0.564465000000     0          
H91      H      0.544040000000     0.222520000000     0.605490000000     0          
H92      H      0.442930000000     0.139120000000     0.669860000000     0          
H93      H      0.443510000000     0.085970000000     0.869750000000     0          
H94      H      0.540550000000     0.169570000000     0.938185000000     0          
H95      H      0.541400000000     0.222760000000     0.897900000000     0          
H96      H      0.443580000000     0.138800000000     0.829730000000     0          
H97      H      0.441540000000     0.354980000000     0.871760000000     0          
H98      H      0.542440000000     0.372820000000     0.935865000000     0          
H99      H      0.543690000000     0.320840000000     0.895190000000     0          
H100     H      0.442450000000     0.303050000000     0.830980000000     0          
H101     H      0.443380000000     0.356840000000     0.631590000000     0          
H102     H      0.540670000000     0.370940000000     0.563040000000     0          
H103     H      0.542230000000     0.319050000000     0.603490000000     0          
H104     H      0.444080000000     0.304390000000     0.671630000000     0          
H105     H      0.493270000000     0.246680000000     0.889585000000     0          
H106     H      0.501530000000     0.335310000000     0.713580000000     0          
H107     H      0.500730000000     0.165220000000     0.787445000000     0          
H108     H      0.493940000000     0.246510000000     0.611355000000     0          
H109     H      0.501130000000     0.335200000000     0.787150000000     0          
H110     H      0.500870000000     0.165180000000     0.713920000000     0          
H111     H      0.913540000000     0.354760000000     0.627175000000     0          
H112     H      0.830580000000     0.375040000000     0.566360000000     0          
H113     H      0.777550000000     0.323250000000     0.607425000000     0          
H114     H      0.860890000000     0.302910000000     0.668250000000     0          
H115     H      0.913110000000     0.355940000000     0.871890000000     0          
H116     H      0.829490000000     0.373170000000     0.935580000000     0          
H117     H      0.776420000000     0.320320000000     0.895515000000     0          
H118     H      0.860410000000     0.302850000000     0.832035000000     0          
H119     H      0.644210000000     0.086060000000     0.870730000000     0          
H120     H      0.627010000000     0.168890000000     0.936060000000     0          
H121     H      0.678800000000     0.222210000000     0.895360000000     0          
H122     H      0.696020000000     0.138970000000     0.830085000000     0          
H123     H      0.643380000000     0.087280000000     0.629685000000     0          
H124     H      0.626960000000     0.170430000000     0.564065000000     0          
H125     H      0.679660000000     0.223720000000     0.603915000000     0          
H126     H      0.696280000000     0.140170000000     0.669370000000     0          
H127     H      0.752420000000     0.246360000000     0.889410000000     0          
H128     H      0.664700000000     0.165990000000     0.712895000000     0          
H129     H      0.834990000000     0.334760000000     0.787680000000     0          
H130     H      0.753300000000     0.248440000000     0.611055000000     0          
H131     H      0.664560000000     0.165430000000     0.786410000000     0          
H132     H      0.835370000000     0.335140000000     0.714090000000     0          
H133     H      0.943620000000     0.400410000000     0.998105000000     0          
H134     H      0.056290000000     0.529740000000     0.913650000000     0          
H135     H      0.027020000000     0.619240000000     0.550445000000     0          
H136     H      0.001370000000     0.601640000000     0.509370000000     0          
H137     H      0.021000000000     0.399650000000     0.547150000000     0          
H138     H      0.998840000000     0.491820000000     0.622145000000     0          
H139     H      0.978610000000     0.528570000000     0.633270000000     0          
H140     H      0.973370000000     0.445020000000     0.627920000000     0          
H141     H      0.943690000000     0.543220000000     0.502075000000     0          
H142     H      0.056170000000     0.526200000000     0.586670000000     0          
H143     H      0.021530000000     0.621320000000     0.953190000000     0          
H144     H      0.001170000000     0.399470000000     0.990820000000     0          
H145     H      0.026990000000     0.407600000000     0.949875000000     0          
H146     H      0.973580000000     0.528380000000     0.872275000000     0          
H147     H      0.978740000000     0.450070000000     0.866840000000     0          
H148     H      0.998980000000     0.506910000000     0.878090000000     0          
H149     H      0.597760000000     0.539080000000     0.999050000000     0          
H150     H      0.469840000000     0.526230000000     0.914355000000     0          
H151     H      0.397410000000     0.398560000000     0.508970000000     0          
H152     H      0.399720000000     0.377820000000     0.551135000000     0          
H153     H      0.505880000000     0.504240000000     0.622340000000     0          
H154     H      0.448620000000     0.470990000000     0.634670000000     0          
H155     H      0.552590000000     0.525650000000     0.629235000000     0          
H156     H      0.457170000000     0.400490000000     0.500900000000     0          
H157     H      0.474360000000     0.531070000000     0.585130000000     0          
H158     H      0.377860000000     0.399830000000     0.954575000000     0          
H159     H      0.470990000000     0.444650000000     0.872270000000     0          
H160     H      0.549180000000     0.527390000000     0.866860000000     0          
H161     H      0.492580000000     0.491510000000     0.878295000000     0          
H162     H      0.458660000000     0.056490000000     0.998075000000     0          
H163     H      0.473530000000     0.942420000000     0.915365000000     0          
H164     H      0.592780000000     0.972740000000     0.548615000000     0          
H165     H      0.600770000000     0.998670000000     0.508095000000     0          
H166     H      0.398390000000     0.021420000000     0.548245000000     0          
H167     H      0.493530000000     0.001310000000     0.621845000000     0          
H168     H      0.550080000000     0.021020000000     0.633465000000     0          
H169     H      0.472790000000     0.027430000000     0.627340000000     0          
H170     H      0.598490000000     0.056730000000     0.502840000000     0          
H171     H      0.470020000000     0.943030000000     0.585960000000     0          
H172     H      0.622950000000     0.022080000000     0.952565000000     0          
H173     H      0.399940000000     0.021240000000     0.948950000000     0          
H174     H      0.397290000000     0.998740000000     0.990945000000     0          
H175     H      0.554160000000     0.026640000000     0.871945000000     0          
H176     H      0.450540000000     0.978540000000     0.865175000000     0          
H177     H      0.507360000000     0.001370000000     0.878255000000     0          
Zr1      Zr     0.927800000000     0.463900000000     0.500065000000     0          
Zr2      Zr     0.000810000000     0.547220000000     0.948705000000     0          
Zr3      Zr     0.999500000000     0.542260000000     0.556555000000     0          
Zr4      Zr     0.000650000000     0.453350000000     0.551495000000     0          
Zr5      Zr     0.072640000000     0.536130000000     0.500160000000     0          
Zr6      Zr     0.999560000000     0.457130000000     0.943630000000     0          
Zr7      Zr     0.534860000000     0.462940000000     0.500395000000     0          
Zr8      Zr     0.452340000000     0.453110000000     0.948720000000     0          
Zr9      Zr     0.455890000000     0.456170000000     0.556725000000     0          
Z0       Zr     0.545420000000     0.545710000000     0.551885000000     0          
Zr11     Zr     0.463700000000     0.536100000000     0.999925000000     0          
Z1       Zr     0.543290000000     0.542450000000     0.943410000000     0          
Zr13     Zr     0.535670000000     0.071290000000     0.999925000000     0          
Zr14     Zr     0.546450000000     0.998500000000     0.948555000000     0          
Zr15     Zr     0.542880000000     0.000090000000     0.556650000000     0          
Zr16     Zr     0.452140000000     0.998660000000     0.551550000000     0          
Zr17     Zr     0.463480000000     0.926900000000     0.500375000000     0          
Zr18     Zr     0.457170000000     0.999560000000     0.943530000000     0          
O1       O      0.030520000000     0.551660000000     0.501770000000     0          
O2       O      0.104530000000     0.585560000000     0.542210000000     0          
O3       O      0.103910000000     0.515060000000     0.539755000000     0          
O4       O      0.104200000000     0.588430000000     0.960445000000     0          
O5       O      0.058790000000     0.596580000000     0.927860000000     0          
O6       O      0.999020000000     0.533340000000     0.880850000000     0          
O7       O      0.941660000000     0.532130000000     0.921150000000     0          
O8       O      0.940960000000     0.411190000000     0.918970000000     0          
O9       O      0.896250000000     0.482950000000     0.958950000000     0          
O10      O      0.895820000000     0.415420000000     0.956840000000     0          
O11      O      0.895670000000     0.480330000000     0.543255000000     0          
O12      O      0.896110000000     0.413250000000     0.541120000000     0          
O13      O      0.941540000000     0.409470000000     0.578915000000     0          
O14      O      0.940720000000     0.529620000000     0.581240000000     0          
O15      O      0.969590000000     0.483360000000     0.544505000000     0          
O16      O      0.959890000000     0.531510000000     0.502110000000     0          
O17      O      0.999680000000     0.598520000000     0.964810000000     0          
O18      O      0.001510000000     0.599370000000     0.541315000000     0          
O19      O      0.001450000000     0.401960000000     0.958905000000     0          
O20      O      0.969700000000     0.486200000000     0.955715000000     0          
O21      O      0.040500000000     0.521840000000     0.937860000000     0          
O22      O      0.059020000000     0.464580000000     0.926140000000     0          
O23      O      0.000720000000     0.470680000000     0.880965000000     0          
O24      O      0.104530000000     0.518580000000     0.958045000000     0          
O25      O      0.000610000000     0.529920000000     0.619195000000     0          
O26      O      0.998860000000     0.465450000000     0.619430000000     0          
O27      O      0.040430000000     0.518350000000     0.562435000000     0          
O28      O      0.059040000000     0.594220000000     0.573965000000     0          
O29      O      0.058510000000     0.461590000000     0.572450000000     0          
O30      O      0.999310000000     0.400810000000     0.535400000000     0          
O31      O      0.959840000000     0.428320000000     0.998060000000     0          
O32      O      0.030470000000     0.478540000000     0.998505000000     0          
O33      O      0.447030000000     0.477750000000     0.502100000000     0          
O34      O      0.413910000000     0.518330000000     0.541755000000     0          
O35      O      0.484930000000     0.588380000000     0.539215000000     0          
O36      O      0.411300000000     0.515150000000     0.960265000000     0          
O37      O      0.402830000000     0.461350000000     0.927970000000     0          
O38      O      0.466040000000     0.465090000000     0.880920000000     0          
O39      O      0.467260000000     0.408800000000     0.921025000000     0          
O40      O      0.587820000000     0.527630000000     0.918650000000     0          
O41      O      0.516370000000     0.412580000000     0.959020000000     0          
O42      O      0.584150000000     0.479150000000     0.957630000000     0          
O43      O      0.518020000000     0.414540000000     0.543955000000     0          
O44      O      0.585340000000     0.481850000000     0.542255000000     0          
O45      O      0.590350000000     0.532320000000     0.578675000000     0          
O46      O      0.465530000000     0.406950000000     0.578470000000     0          
O47      O      0.515110000000     0.484950000000     0.546055000000     0          
O48      O      0.468400000000     0.428300000000     0.501345000000     0          
O49      O      0.400740000000     0.400420000000     0.965525000000     0          
O50      O      0.399330000000     0.400560000000     0.541380000000     0          
O52      O      0.513260000000     0.483170000000     0.955865000000     0          
O53      O      0.477830000000     0.518070000000     0.938295000000     0          
O54      O      0.534530000000     0.593140000000     0.925420000000     0          
O55      O      0.528820000000     0.529080000000     0.881130000000     0          
O56      O      0.481280000000     0.585630000000     0.958230000000     0          
O57      O      0.467910000000     0.468060000000     0.619725000000     0          
O58      O      0.532390000000     0.530520000000     0.619550000000     0          
O59      O      0.481390000000     0.521880000000     0.561325000000     0          
O60      O      0.407630000000     0.466730000000     0.577050000000     0          
O63      O      0.570060000000     0.528880000000     0.998725000000     0          
O64      O      0.521940000000     0.551730000000     0.998485000000     0          
O65      O      0.521700000000     0.969190000000     0.501670000000     0          
O66      O      0.482150000000     0.895600000000     0.542705000000     0          
O67      O      0.411770000000     0.895100000000     0.539700000000     0          
O68      O      0.483320000000     0.894600000000     0.961245000000     0          
O69      O      0.535830000000     0.940060000000     0.927265000000     0          
O70      O      0.533870000000     0.001380000000     0.881080000000     0          
O71      O      0.591940000000     0.057860000000     0.921980000000     0          
O72      O      0.466390000000     0.058260000000     0.922050000000     0          
O73      O      0.586570000000     0.103000000000     0.958595000000     0          
O74      O      0.519220000000     0.103180000000     0.956200000000     0          
O75      O      0.584260000000     0.103810000000     0.543470000000     0          
O76      O      0.516700000000     0.103380000000     0.541440000000     0          
O77      O      0.466270000000     0.058230000000     0.578235000000     0          
O78      O      0.589110000000     0.058970000000     0.581195000000     0          
O79      O      0.513360000000     0.029690000000     0.544855000000     0          
O80      O      0.570680000000     0.039920000000     0.502450000000     0          
O81      O      0.599430000000     0.000170000000     0.962810000000     0          
O82      O      0.598090000000     0.998210000000     0.539800000000     0          
O83      O      0.399820000000     0.998420000000     0.959335000000     0          
O84      O      0.516310000000     0.029770000000     0.954370000000     0          
O85      O      0.481380000000     0.958710000000     0.939135000000     0          
O86      O      0.408330000000     0.941260000000     0.922340000000     0          
O87      O      0.469900000000     0.000270000000     0.880615000000     0          
O88      O      0.413530000000     0.895630000000     0.958255000000     0          
O89      O      0.529430000000     0.999100000000     0.619310000000     0          
O90      O      0.467310000000     0.001780000000     0.619035000000     0          
O91      O      0.478420000000     0.959220000000     0.562060000000     0          
O92      O      0.536220000000     0.941150000000     0.574440000000     0          
O93      O      0.404550000000     0.940570000000     0.573280000000     0          
O94      O      0.400970000000     0.000520000000     0.536685000000     0          
O95      O      0.469870000000     0.039900000000     0.998395000000     0          
O96      O      0.446610000000     0.968760000000     0.998445000000     0          


