data_MgMOF-74

_audit_creation_method RASPA-1.0
_audit_creation_date 2020-3-18
_audit_author_name 'Haoyuan Chen'

_cell_length_a    26.136
_cell_length_b    52.272
_cell_length_c    27.768
_cell_angle_alpha 90
_cell_angle_beta  90
_cell_angle_gamma 120
_cell_volume      32853.6

_symmetry_cell_setting          trigonal
_symmetry_space_group_name_Hall 'P 1'
_symmetry_space_group_name_H-M  'P 1'
_symmetry_Int_Tables_number     1

_symmetry_equiv_pos_as_xyz 'x,y,z'

loop_
_atom_site_label
_atom_site_type_symbol
_atom_site_fract_x
_atom_site_fract_y
_atom_site_fract_z
_atom_site_charge
Z0       Mg     0.641590000000     0.342570000000     0.117972500000     0          
O1       O      0.969430000000     0.148880000000     0.090095000000     0          
O2       O      0.927630000000     0.115240000000     0.152550000000     0          
O3       O      0.254940000000     0.471025000000     0.168457500000     0          
C1       C      0.926670000000     0.122900000000     0.106757500000     0          
C2       C      0.879180000000     0.103555000000     0.072707500000     0          
C3       C      0.212540000000     0.444630000000     0.188725000000     0          
C4       C      0.166300000000     0.423795000000     0.158895000000     0          
H1       H      0.165290000000     0.429015000000     0.119795000000     0          
Z0       Mg     0.314860000000     0.478225000000     0.117972500000     0          
O1       O      0.702240000000     0.335835000000     0.090095000000     0          
O2       O      0.769520000000     0.348575000000     0.152550000000     0          
O3       O      0.057950000000     0.156445000000     0.168457500000     0          
C1       C      0.754200000000     0.340435000000     0.106757500000     0          
C2       C      0.792890000000     0.336035000000     0.072707500000     0          
C3       C      0.110740000000     0.161640000000     0.188725000000     0          
C4       C      0.152410000000     0.159355000000     0.158895000000     0          
H1       H      0.141970000000     0.153630000000     0.119795000000     0          
Z0       Mg     0.043550000000     0.179205000000     0.117972500000     0          
O1       O      0.328330000000     0.015285000000     0.090095000000     0          
O2       O      0.302850000000     0.036185000000     0.152550000000     0          
O3       O      0.687110000000     0.372530000000     0.168457500000     0          
C1       C      0.319130000000     0.036665000000     0.106757500000     0          
C2       C      0.327930000000     0.060410000000     0.072707500000     0          
C3       C      0.676720000000     0.393730000000     0.188725000000     0          
C4       C      0.681290000000     0.416850000000     0.158895000000     0          
H1       H      0.692740000000     0.417355000000     0.119795000000     0          
Z0       Mg     0.358410000000     0.157430000000     0.132027500000     0          
O1       O      0.030570000000     0.351120000000     0.159905000000     0          
O2       O      0.072370000000     0.384760000000     0.097450000000     0          
O3       O      0.745060000000     0.028975000000     0.081542500000     0          
C1       C      0.073330000000     0.377100000000     0.143242500000     0          
C2       C      0.120820000000     0.396445000000     0.177292500000     0          
C3       C      0.787460000000     0.055370000000     0.061275000000     0          
C4       C      0.833700000000     0.076205000000     0.091105000000     0          
H1       H      0.834710000000     0.070985000000     0.130205000000     0          
Z0       Mg     0.685140000000     0.021775000000     0.132027500000     0          
O1       O      0.297760000000     0.164165000000     0.159905000000     0          
O2       O      0.230480000000     0.151425000000     0.097450000000     0          
O3       O      0.942050000000     0.343555000000     0.081542500000     0          
C1       C      0.245800000000     0.159565000000     0.143242500000     0          
C2       C      0.207110000000     0.163965000000     0.177292500000     0          
C3       C      0.889260000000     0.338360000000     0.061275000000     0          
C4       C      0.847590000000     0.340645000000     0.091105000000     0          
H1       H      0.858030000000     0.346370000000     0.130205000000     0          
Z0       Mg     0.956450000000     0.320795000000     0.132027500000     0          
O1       O      0.671670000000     0.484715000000     0.159905000000     0          
O2       O      0.697150000000     0.463815000000     0.097450000000     0          
O3       O      0.312890000000     0.127470000000     0.081542500000     0          
C1       C      0.680870000000     0.463335000000     0.143242500000     0          
C2       C      0.672070000000     0.439590000000     0.177292500000     0          
C3       C      0.323280000000     0.106270000000     0.061275000000     0          
C4       C      0.318710000000     0.083150000000     0.091105000000     0          
H1       H      0.307260000000     0.082645000000     0.130205000000     0          
Z0       Mg     0.308256666667     0.009236666667     0.201305833333     0          
O1       O      0.636096666667     0.315546666667     0.173428333333     0          
O2       O      0.594296666667     0.281906666667     0.235883333333     0          
O3       O      0.921606666667     0.137691666667     0.001790833333     0          
C1       C      0.593336666667     0.289566666667     0.190090833333     0          
C2       C      0.545846666667     0.270221666667     0.156040833333     0          
C3       C      0.879206666667     0.111296666667     0.022058333333     0          
C4       C      0.832966666667     0.090461666667     0.242228333333     0          
H1       H      0.831956666667     0.095681666667     0.203128333333     0          
Z0       Mg     0.981526666667     0.144891666667     0.201305833333     0          
O1       O      0.368906666667     0.002501666667     0.173428333333     0          
O2       O      0.436186666667     0.015241666667     0.235883333333     0          
O3       O      0.724616666667     0.323111666667     0.001790833333     0          
C1       C      0.420866666667     0.007101666667     0.190090833333     0          
C2       C      0.459556666667     0.002701666667     0.156040833333     0          
C3       C      0.777406666667     0.328306666667     0.022058333333     0          
C4       C      0.819076666667     0.326021666667     0.242228333333     0          
H1       H      0.808636666667     0.320296666667     0.203128333333     0          
Z0       Mg     0.710216666667     0.345871666667     0.201305833333     0          
O1       O      0.994996666667     0.181951666667     0.173428333333     0          
O2       O      0.969516666667     0.202851666667     0.235883333333     0          
O3       O      0.353776666667     0.039196666667     0.001790833333     0          
C1       C      0.985796666667     0.203331666667     0.190090833333     0          
C2       C      0.994596666667     0.227076666667     0.156040833333     0          
C3       C      0.343386666667     0.060396666667     0.022058333333     0          
C4       C      0.347956666667     0.083516666667     0.242228333333     0          
H1       H      0.359406666667     0.084021666667     0.203128333333     0          
Z0       Mg     0.025076666667     0.324096666667     0.215360833333     0          
O1       O      0.697236666667     0.017786666667     0.243238333333     0          
O2       O      0.739036666667     0.051426666667     0.180783333333     0          
O3       O      0.411726666667     0.195641666667     0.164875833333     0          
C1       C      0.739996666667     0.043766666667     0.226575833333     0          
C2       C      0.787486666667     0.063111666667     0.010625833333     0          
C3       C      0.454126666667     0.222036666667     0.144608333333     0          
C4       C      0.500366666667     0.242871666667     0.174438333333     0          
H1       H      0.501376666667     0.237651666667     0.213538333333     0          
Z0       Mg     0.351806666667     0.188441666667     0.215360833333     0          
O1       O      0.964426666667     0.330831666667     0.243238333333     0          
O2       O      0.897146666667     0.318091666667     0.180783333333     0          
O3       O      0.608716666667     0.010221666667     0.164875833333     0          
C1       C      0.912466666667     0.326231666667     0.226575833333     0          
C2       C      0.873776666667     0.330631666667     0.010625833333     0          
C3       C      0.555926666667     0.005026666667     0.144608333333     0          
C4       C      0.514256666667     0.007311666667     0.174438333333     0          
H1       H      0.524696666667     0.013036666667     0.213538333333     0          
Z0       Mg     0.623116666667     0.487461666667     0.215360833333     0          
O1       O      0.338336666667     0.151381666667     0.243238333333     0          
O2       O      0.363816666667     0.130481666667     0.180783333333     0          
O3       O      0.979556666667     0.294136666667     0.164875833333     0          
C1       C      0.347536666667     0.130001666667     0.226575833333     0          
C2       C      0.338736666667     0.106256666667     0.010625833333     0          
C3       C      0.989946666667     0.272936666667     0.144608333333     0          
C4       C      0.985376666667     0.249816666667     0.174438333333     0          
H1       H      0.973926666667     0.249311666667     0.213538333333     0          
Z0       Mg     0.974923333333     0.175903333333     0.034639166667     0          
O1       O      0.302763333333     0.482213333333     0.006761666667     0          
O2       O      0.260963333333     0.448573333333     0.069216666667     0          
O3       O      0.588273333333     0.304358333333     0.085124166667     0          
C1       C      0.260003333333     0.456233333333     0.023424166667     0          
C2       C      0.212513333333     0.436888333333     0.239374166667     0          
C3       C      0.545873333333     0.277963333333     0.105391666667     0          
C4       C      0.499633333333     0.257128333333     0.075561666667     0          
H1       H      0.498623333333     0.262348333333     0.036461666667     0          
Z0       Mg     0.648193333333     0.311558333333     0.034639166667     0          
O1       O      0.035573333333     0.169168333333     0.006761666667     0          
O2       O      0.102853333333     0.181908333333     0.069216666667     0          
O3       O      0.391283333333     0.489778333333     0.085124166667     0          
C1       C      0.087533333333     0.173768333333     0.023424166667     0          
C2       C      0.126223333333     0.169368333333     0.239374166667     0          
C3       C      0.444073333333     0.494973333333     0.105391666667     0          
C4       C      0.485743333333     0.492688333333     0.075561666667     0          
H1       H      0.475303333333     0.486963333333     0.036461666667     0          
Z0       Mg     0.376883333333     0.012538333333     0.034639166667     0          
O1       O      0.661663333333     0.348618333333     0.006761666667     0          
O2       O      0.636183333333     0.369518333333     0.069216666667     0          
O3       O      0.020443333333     0.205863333333     0.085124166667     0          
C1       C      0.652463333333     0.369998333333     0.023424166667     0          
C2       C      0.661263333333     0.393743333333     0.239374166667     0          
C3       C      0.010053333333     0.227063333333     0.105391666667     0          
C4       C      0.014623333333     0.250183333333     0.075561666667     0          
H1       H      0.026073333333     0.250688333333     0.036461666667     0          
Z0       Mg     0.691743333333     0.490763333333     0.048694166667     0          
O1       O      0.363903333333     0.184453333333     0.076571666667     0          
O2       O      0.405703333333     0.218093333333     0.014116666667     0          
O3       O      0.078393333333     0.362308333333     0.248209166667     0          
C1       C      0.406663333333     0.210433333333     0.059909166667     0          
C2       C      0.454153333333     0.229778333333     0.093959166667     0          
C3       C      0.120793333333     0.388703333333     0.227941666667     0          
C4       C      0.167033333333     0.409538333333     0.007771666667     0          
H1       H      0.168043333333     0.404318333333     0.046871666667     0          
Z0       Mg     0.018473333333     0.355108333333     0.048694166667     0          
O1       O      0.631093333333     0.497498333333     0.076571666667     0          
O2       O      0.563813333333     0.484758333333     0.014116666667     0          
O3       O      0.275383333333     0.176888333333     0.248209166667     0          
C1       C      0.579133333333     0.492898333333     0.059909166667     0          
C2       C      0.540443333333     0.497298333333     0.093959166667     0          
C3       C      0.222593333333     0.171693333333     0.227941666667     0          
C4       C      0.180923333333     0.173978333333     0.007771666667     0          
H1       H      0.191363333333     0.179703333333     0.046871666667     0          
Z0       Mg     0.289783333333     0.154128333333     0.048694166667     0          
O1       O      0.005003333333     0.318048333333     0.076571666667     0          
O2       O      0.030483333333     0.297148333333     0.014116666667     0          
O3       O      0.646223333333     0.460803333333     0.248209166667     0          
C1       C      0.014203333333     0.296668333333     0.059909166667     0          
C2       C      0.005403333333     0.272923333333     0.093959166667     0          
C3       C      0.656613333333     0.439603333333     0.227941666667     0          
C4       C      0.652043333333     0.416483333333     0.007771666667     0          
H1       H      0.640593333333     0.415978333333     0.046871666667     0          
Z0       Mg     0.641590000000     0.342570000000     0.367972500000     0          
O1       O      0.969430000000     0.148880000000     0.340095000000     0          
O2       O      0.927630000000     0.115240000000     0.402550000000     0          
O3       O      0.254940000000     0.471025000000     0.418457500000     0          
C1       C      0.926670000000     0.122900000000     0.356757500000     0          
C2       C      0.879180000000     0.103555000000     0.322707500000     0          
C3       C      0.212540000000     0.444630000000     0.438725000000     0          
C4       C      0.166300000000     0.423795000000     0.408895000000     0          
H1       H      0.165290000000     0.429015000000     0.369795000000     0          
Z0       Mg     0.314860000000     0.478225000000     0.367972500000     0          
O1       O      0.702240000000     0.335835000000     0.340095000000     0          
O2       O      0.769520000000     0.348575000000     0.402550000000     0          
O3       O      0.057950000000     0.156445000000     0.418457500000     0          
C1       C      0.754200000000     0.340435000000     0.356757500000     0          
C2       C      0.792890000000     0.336035000000     0.322707500000     0          
C3       C      0.110740000000     0.161640000000     0.438725000000     0          
C4       C      0.152410000000     0.159355000000     0.408895000000     0          
H1       H      0.141970000000     0.153630000000     0.369795000000     0          
Z0       Mg     0.043550000000     0.179205000000     0.367972500000     0          
O1       O      0.328330000000     0.015285000000     0.340095000000     0          
O2       O      0.302850000000     0.036185000000     0.402550000000     0          
O3       O      0.687110000000     0.372530000000     0.418457500000     0          
C1       C      0.319130000000     0.036665000000     0.356757500000     0          
C2       C      0.327930000000     0.060410000000     0.322707500000     0          
C3       C      0.676720000000     0.393730000000     0.438725000000     0          
C4       C      0.681290000000     0.416850000000     0.408895000000     0          
H1       H      0.692740000000     0.417355000000     0.369795000000     0          
Z0       Mg     0.358410000000     0.157430000000     0.382027500000     0          
O1       O      0.030570000000     0.351120000000     0.409905000000     0          
O2       O      0.072370000000     0.384760000000     0.347450000000     0          
O3       O      0.745060000000     0.028975000000     0.331542500000     0          
C1       C      0.073330000000     0.377100000000     0.393242500000     0          
C2       C      0.120820000000     0.396445000000     0.427292500000     0          
C3       C      0.787460000000     0.055370000000     0.311275000000     0          
C4       C      0.833700000000     0.076205000000     0.341105000000     0          
H1       H      0.834710000000     0.070985000000     0.380205000000     0          
Z0       Mg     0.685140000000     0.021775000000     0.382027500000     0          
O1       O      0.297760000000     0.164165000000     0.409905000000     0          
O2       O      0.230480000000     0.151425000000     0.347450000000     0          
O3       O      0.942050000000     0.343555000000     0.331542500000     0          
C1       C      0.245800000000     0.159565000000     0.393242500000     0          
C2       C      0.207110000000     0.163965000000     0.427292500000     0          
C3       C      0.889260000000     0.338360000000     0.311275000000     0          
C4       C      0.847590000000     0.340645000000     0.341105000000     0          
H1       H      0.858030000000     0.346370000000     0.380205000000     0          
Z0       Mg     0.956450000000     0.320795000000     0.382027500000     0          
O1       O      0.671670000000     0.484715000000     0.409905000000     0          
O2       O      0.697150000000     0.463815000000     0.347450000000     0          
O3       O      0.312890000000     0.127470000000     0.331542500000     0          
C1       C      0.680870000000     0.463335000000     0.393242500000     0          
C2       C      0.672070000000     0.439590000000     0.427292500000     0          
C3       C      0.323280000000     0.106270000000     0.311275000000     0          
C4       C      0.318710000000     0.083150000000     0.341105000000     0          
H1       H      0.307260000000     0.082645000000     0.380205000000     0          
Z0       Mg     0.308256666667     0.009236666667     0.451305833333     0          
O1       O      0.636096666667     0.315546666667     0.423428333333     0          
O2       O      0.594296666667     0.281906666667     0.485883333333     0          
O3       O      0.921606666667     0.137691666667     0.251790833333     0          
C1       C      0.593336666667     0.289566666667     0.440090833333     0          
C2       C      0.545846666667     0.270221666667     0.406040833333     0          
C3       C      0.879206666667     0.111296666667     0.272058333333     0          
C4       C      0.832966666667     0.090461666667     0.492228333333     0          
H1       H      0.831956666667     0.095681666667     0.453128333333     0          
Z0       Mg     0.981526666667     0.144891666667     0.451305833333     0          
O1       O      0.368906666667     0.002501666667     0.423428333333     0          
O2       O      0.436186666667     0.015241666667     0.485883333333     0          
O3       O      0.724616666667     0.323111666667     0.251790833333     0          
C1       C      0.420866666667     0.007101666667     0.440090833333     0          
C2       C      0.459556666667     0.002701666667     0.406040833333     0          
C3       C      0.777406666667     0.328306666667     0.272058333333     0          
C4       C      0.819076666667     0.326021666667     0.492228333333     0          
H1       H      0.808636666667     0.320296666667     0.453128333333     0          
Z0       Mg     0.710216666667     0.345871666667     0.451305833333     0          
O1       O      0.994996666667     0.181951666667     0.423428333333     0          
O2       O      0.969516666667     0.202851666667     0.485883333333     0          
O3       O      0.353776666667     0.039196666667     0.251790833333     0          
C1       C      0.985796666667     0.203331666667     0.440090833333     0          
C2       C      0.994596666667     0.227076666667     0.406040833333     0          
C3       C      0.343386666667     0.060396666667     0.272058333333     0          
C4       C      0.347956666667     0.083516666667     0.492228333333     0          
H1       H      0.359406666667     0.084021666667     0.453128333333     0          
Z0       Mg     0.025076666667     0.324096666667     0.465360833333     0          
O1       O      0.697236666667     0.017786666667     0.493238333333     0          
O2       O      0.739036666667     0.051426666667     0.430783333333     0          
O3       O      0.411726666667     0.195641666667     0.414875833333     0          
C1       C      0.739996666667     0.043766666667     0.476575833333     0          
C2       C      0.787486666667     0.063111666667     0.260625833333     0          
C3       C      0.454126666667     0.222036666667     0.394608333333     0          
C4       C      0.500366666667     0.242871666667     0.424438333333     0          
H1       H      0.501376666667     0.237651666667     0.463538333333     0          
Z0       Mg     0.351806666667     0.188441666667     0.465360833333     0          
O1       O      0.964426666667     0.330831666667     0.493238333333     0          
O2       O      0.897146666667     0.318091666667     0.430783333333     0          
O3       O      0.608716666667     0.010221666667     0.414875833333     0          
C1       C      0.912466666667     0.326231666667     0.476575833333     0          
C2       C      0.873776666667     0.330631666667     0.260625833333     0          
C3       C      0.555926666667     0.005026666667     0.394608333333     0          
C4       C      0.514256666667     0.007311666667     0.424438333333     0          
H1       H      0.524696666667     0.013036666667     0.463538333333     0          
Z0       Mg     0.623116666667     0.487461666667     0.465360833333     0          
O1       O      0.338336666667     0.151381666667     0.493238333333     0          
O2       O      0.363816666667     0.130481666667     0.430783333333     0          
O3       O      0.979556666667     0.294136666667     0.414875833333     0          
C1       C      0.347536666667     0.130001666667     0.476575833333     0          
C2       C      0.338736666667     0.106256666667     0.260625833333     0          
C3       C      0.989946666667     0.272936666667     0.394608333333     0          
C4       C      0.985376666667     0.249816666667     0.424438333333     0          
H1       H      0.973926666667     0.249311666667     0.463538333333     0          
Z0       Mg     0.974923333333     0.175903333333     0.284639166667     0          
O1       O      0.302763333333     0.482213333333     0.256761666667     0          
O2       O      0.260963333333     0.448573333333     0.319216666667     0          
O3       O      0.588273333333     0.304358333333     0.335124166667     0          
C1       C      0.260003333333     0.456233333333     0.273424166667     0          
C2       C      0.212513333333     0.436888333333     0.489374166667     0          
C3       C      0.545873333333     0.277963333333     0.355391666667     0          
C4       C      0.499633333333     0.257128333333     0.325561666667     0          
H1       H      0.498623333333     0.262348333333     0.286461666667     0          
Z0       Mg     0.648193333333     0.311558333333     0.284639166667     0          
O1       O      0.035573333333     0.169168333333     0.256761666667     0          
O2       O      0.102853333333     0.181908333333     0.319216666667     0          
O3       O      0.391283333333     0.489778333333     0.335124166667     0          
C1       C      0.087533333333     0.173768333333     0.273424166667     0          
C2       C      0.126223333333     0.169368333333     0.489374166667     0          
C3       C      0.444073333333     0.494973333333     0.355391666667     0          
C4       C      0.485743333333     0.492688333333     0.325561666667     0          
H1       H      0.475303333333     0.486963333333     0.286461666667     0          
Z0       Mg     0.376883333333     0.012538333333     0.284639166667     0          
O1       O      0.661663333333     0.348618333333     0.256761666667     0          
O2       O      0.636183333333     0.369518333333     0.319216666667     0          
O3       O      0.020443333333     0.205863333333     0.335124166667     0          
C1       C      0.652463333333     0.369998333333     0.273424166667     0          
C2       C      0.661263333333     0.393743333333     0.489374166667     0          
C3       C      0.010053333333     0.227063333333     0.355391666667     0          
C4       C      0.014623333333     0.250183333333     0.325561666667     0          
H1       H      0.026073333333     0.250688333333     0.286461666667     0          
Z0       Mg     0.691743333333     0.490763333333     0.298694166667     0          
O1       O      0.363903333333     0.184453333333     0.326571666667     0          
O2       O      0.405703333333     0.218093333333     0.264116666667     0          
O3       O      0.078393333333     0.362308333333     0.498209166667     0          
C1       C      0.406663333333     0.210433333333     0.309909166667     0          
C2       C      0.454153333333     0.229778333333     0.343959166667     0          
C3       C      0.120793333333     0.388703333333     0.477941666667     0          
C4       C      0.167033333333     0.409538333333     0.257771666667     0          
H1       H      0.168043333333     0.404318333333     0.296871666667     0          
Z0       Mg     0.018473333333     0.355108333333     0.298694166667     0          
O1       O      0.631093333333     0.497498333333     0.326571666667     0          
O2       O      0.563813333333     0.484758333333     0.264116666667     0          
O3       O      0.275383333333     0.176888333333     0.498209166667     0          
C1       C      0.579133333333     0.492898333333     0.309909166667     0          
C2       C      0.540443333333     0.497298333333     0.343959166667     0          
C3       C      0.222593333333     0.171693333333     0.477941666667     0          
C4       C      0.180923333333     0.173978333333     0.257771666667     0          
H1       H      0.191363333333     0.179703333333     0.296871666667     0          
Z0       Mg     0.289783333333     0.154128333333     0.298694166667     0          
O1       O      0.005003333333     0.318048333333     0.326571666667     0          
O2       O      0.030483333333     0.297148333333     0.264116666667     0          
O3       O      0.646223333333     0.460803333333     0.498209166667     0          
C1       C      0.014203333333     0.296668333333     0.309909166667     0          
C2       C      0.005403333333     0.272923333333     0.343959166667     0          
C3       C      0.656613333333     0.439603333333     0.477941666667     0          
C4       C      0.652043333333     0.416483333333     0.257771666667     0          
H1       H      0.640593333333     0.415978333333     0.296871666667     0          
Z0       Mg     0.641590000000     0.342570000000     0.617972500000     0          
O1       O      0.969430000000     0.148880000000     0.590095000000     0          
O2       O      0.927630000000     0.115240000000     0.652550000000     0          
O3       O      0.254940000000     0.471025000000     0.668457500000     0          
C1       C      0.926670000000     0.122900000000     0.606757500000     0          
C2       C      0.879180000000     0.103555000000     0.572707500000     0          
C3       C      0.212540000000     0.444630000000     0.688725000000     0          
C4       C      0.166300000000     0.423795000000     0.658895000000     0          
H1       H      0.165290000000     0.429015000000     0.619795000000     0          
Z0       Mg     0.314860000000     0.478225000000     0.617972500000     0          
O1       O      0.702240000000     0.335835000000     0.590095000000     0          
O2       O      0.769520000000     0.348575000000     0.652550000000     0          
O3       O      0.057950000000     0.156445000000     0.668457500000     0          
C1       C      0.754200000000     0.340435000000     0.606757500000     0          
C2       C      0.792890000000     0.336035000000     0.572707500000     0          
C3       C      0.110740000000     0.161640000000     0.688725000000     0          
C4       C      0.152410000000     0.159355000000     0.658895000000     0          
H1       H      0.141970000000     0.153630000000     0.619795000000     0          
Z0       Mg     0.043550000000     0.179205000000     0.617972500000     0          
O1       O      0.328330000000     0.015285000000     0.590095000000     0          
O2       O      0.302850000000     0.036185000000     0.652550000000     0          
O3       O      0.687110000000     0.372530000000     0.668457500000     0          
C1       C      0.319130000000     0.036665000000     0.606757500000     0          
C2       C      0.327930000000     0.060410000000     0.572707500000     0          
C3       C      0.676720000000     0.393730000000     0.688725000000     0          
C4       C      0.681290000000     0.416850000000     0.658895000000     0          
H1       H      0.692740000000     0.417355000000     0.619795000000     0          
Z0       Mg     0.358410000000     0.157430000000     0.632027500000     0          
O1       O      0.030570000000     0.351120000000     0.659905000000     0          
O2       O      0.072370000000     0.384760000000     0.597450000000     0          
O3       O      0.745060000000     0.028975000000     0.581542500000     0          
C1       C      0.073330000000     0.377100000000     0.643242500000     0          
C2       C      0.120820000000     0.396445000000     0.677292500000     0          
C3       C      0.787460000000     0.055370000000     0.561275000000     0          
C4       C      0.833700000000     0.076205000000     0.591105000000     0          
H1       H      0.834710000000     0.070985000000     0.630205000000     0          
Z0       Mg     0.685140000000     0.021775000000     0.632027500000     0          
O1       O      0.297760000000     0.164165000000     0.659905000000     0          
O2       O      0.230480000000     0.151425000000     0.597450000000     0          
O3       O      0.942050000000     0.343555000000     0.581542500000     0          
C1       C      0.245800000000     0.159565000000     0.643242500000     0          
C2       C      0.207110000000     0.163965000000     0.677292500000     0          
C3       C      0.889260000000     0.338360000000     0.561275000000     0          
C4       C      0.847590000000     0.340645000000     0.591105000000     0          
H1       H      0.858030000000     0.346370000000     0.630205000000     0          
Z0       Mg     0.956450000000     0.320795000000     0.632027500000     0          
O1       O      0.671670000000     0.484715000000     0.659905000000     0          
O2       O      0.697150000000     0.463815000000     0.597450000000     0          
O3       O      0.312890000000     0.127470000000     0.581542500000     0          
C1       C      0.680870000000     0.463335000000     0.643242500000     0          
C2       C      0.672070000000     0.439590000000     0.677292500000     0          
C3       C      0.323280000000     0.106270000000     0.561275000000     0          
C4       C      0.318710000000     0.083150000000     0.591105000000     0          
H1       H      0.307260000000     0.082645000000     0.630205000000     0          
Z0       Mg     0.308256666667     0.009236666667     0.701305833333     0          
O1       O      0.636096666667     0.315546666667     0.673428333333     0          
O2       O      0.594296666667     0.281906666667     0.735883333333     0          
O3       O      0.921606666667     0.137691666667     0.501790833333     0          
C1       C      0.593336666667     0.289566666667     0.690090833333     0          
C2       C      0.545846666667     0.270221666667     0.656040833333     0          
C3       C      0.879206666667     0.111296666667     0.522058333333     0          
C4       C      0.832966666667     0.090461666667     0.742228333333     0          
H1       H      0.831956666667     0.095681666667     0.703128333333     0          
Z0       Mg     0.981526666667     0.144891666667     0.701305833333     0          
O1       O      0.368906666667     0.002501666667     0.673428333333     0          
O2       O      0.436186666667     0.015241666667     0.735883333333     0          
O3       O      0.724616666667     0.323111666667     0.501790833333     0          
C1       C      0.420866666667     0.007101666667     0.690090833333     0          
C2       C      0.459556666667     0.002701666667     0.656040833333     0          
C3       C      0.777406666667     0.328306666667     0.522058333333     0          
C4       C      0.819076666667     0.326021666667     0.742228333333     0          
H1       H      0.808636666667     0.320296666667     0.703128333333     0          
Z0       Mg     0.710216666667     0.345871666667     0.701305833333     0          
O1       O      0.994996666667     0.181951666667     0.673428333333     0          
O2       O      0.969516666667     0.202851666667     0.735883333333     0          
O3       O      0.353776666667     0.039196666667     0.501790833333     0          
C1       C      0.985796666667     0.203331666667     0.690090833333     0          
C2       C      0.994596666667     0.227076666667     0.656040833333     0          
C3       C      0.343386666667     0.060396666667     0.522058333333     0          
C4       C      0.347956666667     0.083516666667     0.742228333333     0          
H1       H      0.359406666667     0.084021666667     0.703128333333     0          
Z0       Mg     0.025076666667     0.324096666667     0.715360833333     0          
O1       O      0.697236666667     0.017786666667     0.743238333333     0          
O2       O      0.739036666667     0.051426666667     0.680783333333     0          
O3       O      0.411726666667     0.195641666667     0.664875833333     0          
C1       C      0.739996666667     0.043766666667     0.726575833333     0          
C2       C      0.787486666667     0.063111666667     0.510625833333     0          
C3       C      0.454126666667     0.222036666667     0.644608333333     0          
C4       C      0.500366666667     0.242871666667     0.674438333333     0          
H1       H      0.501376666667     0.237651666667     0.713538333333     0          
Z0       Mg     0.351806666667     0.188441666667     0.715360833333     0          
O1       O      0.964426666667     0.330831666667     0.743238333333     0          
O2       O      0.897146666667     0.318091666667     0.680783333333     0          
O3       O      0.608716666667     0.010221666667     0.664875833333     0          
C1       C      0.912466666667     0.326231666667     0.726575833333     0          
C2       C      0.873776666667     0.330631666667     0.510625833333     0          
C3       C      0.555926666667     0.005026666667     0.644608333333     0          
C4       C      0.514256666667     0.007311666667     0.674438333333     0          
H1       H      0.524696666667     0.013036666667     0.713538333333     0          
Z0       Mg     0.623116666667     0.487461666667     0.715360833333     0          
O1       O      0.338336666667     0.151381666667     0.743238333333     0          
O2       O      0.363816666667     0.130481666667     0.680783333333     0          
O3       O      0.979556666667     0.294136666667     0.664875833333     0          
C1       C      0.347536666667     0.130001666667     0.726575833333     0          
C2       C      0.338736666667     0.106256666667     0.510625833333     0          
C3       C      0.989946666667     0.272936666667     0.644608333333     0          
C4       C      0.985376666667     0.249816666667     0.674438333333     0          
H1       H      0.973926666667     0.249311666667     0.713538333333     0          
Z0       Mg     0.974923333333     0.175903333333     0.534639166667     0          
O1       O      0.302763333333     0.482213333333     0.506761666667     0          
O2       O      0.260963333333     0.448573333333     0.569216666667     0          
O3       O      0.588273333333     0.304358333333     0.585124166667     0          
C1       C      0.260003333333     0.456233333333     0.523424166667     0          
C2       C      0.212513333333     0.436888333333     0.739374166667     0          
C3       C      0.545873333333     0.277963333333     0.605391666667     0          
C4       C      0.499633333333     0.257128333333     0.575561666667     0          
H1       H      0.498623333333     0.262348333333     0.536461666667     0          
Z0       Mg     0.648193333333     0.311558333333     0.534639166667     0          
O1       O      0.035573333333     0.169168333333     0.506761666667     0          
O2       O      0.102853333333     0.181908333333     0.569216666667     0          
O3       O      0.391283333333     0.489778333333     0.585124166667     0          
C1       C      0.087533333333     0.173768333333     0.523424166667     0          
C2       C      0.126223333333     0.169368333333     0.739374166667     0          
C3       C      0.444073333333     0.494973333333     0.605391666667     0          
C4       C      0.485743333333     0.492688333333     0.575561666667     0          
H1       H      0.475303333333     0.486963333333     0.536461666667     0          
Z0       Mg     0.376883333333     0.012538333333     0.534639166667     0          
O1       O      0.661663333333     0.348618333333     0.506761666667     0          
O2       O      0.636183333333     0.369518333333     0.569216666667     0          
O3       O      0.020443333333     0.205863333333     0.585124166667     0          
C1       C      0.652463333333     0.369998333333     0.523424166667     0          
C2       C      0.661263333333     0.393743333333     0.739374166667     0          
C3       C      0.010053333333     0.227063333333     0.605391666667     0          
C4       C      0.014623333333     0.250183333333     0.575561666667     0          
H1       H      0.026073333333     0.250688333333     0.536461666667     0          
Z0       Mg     0.691743333333     0.490763333333     0.548694166667     0          
O1       O      0.363903333333     0.184453333333     0.576571666667     0          
O2       O      0.405703333333     0.218093333333     0.514116666667     0          
O3       O      0.078393333333     0.362308333333     0.748209166667     0          
C1       C      0.406663333333     0.210433333333     0.559909166667     0          
C2       C      0.454153333333     0.229778333333     0.593959166667     0          
C3       C      0.120793333333     0.388703333333     0.727941666667     0          
C4       C      0.167033333333     0.409538333333     0.507771666667     0          
H1       H      0.168043333333     0.404318333333     0.546871666667     0          
Z0       Mg     0.018473333333     0.355108333333     0.548694166667     0          
O1       O      0.631093333333     0.497498333333     0.576571666667     0          
O2       O      0.563813333333     0.484758333333     0.514116666667     0          
O3       O      0.275383333333     0.176888333333     0.748209166667     0          
C1       C      0.579133333333     0.492898333333     0.559909166667     0          
C2       C      0.540443333333     0.497298333333     0.593959166667     0          
C3       C      0.222593333333     0.171693333333     0.727941666667     0          
C4       C      0.180923333333     0.173978333333     0.507771666667     0          
H1       H      0.191363333333     0.179703333333     0.546871666667     0          
Z0       Mg     0.289783333333     0.154128333333     0.548694166667     0          
O1       O      0.005003333333     0.318048333333     0.576571666667     0          
O2       O      0.030483333333     0.297148333333     0.514116666667     0          
O3       O      0.646223333333     0.460803333333     0.748209166667     0          
C1       C      0.014203333333     0.296668333333     0.559909166667     0          
C2       C      0.005403333333     0.272923333333     0.593959166667     0          
C3       C      0.656613333333     0.439603333333     0.727941666667     0          
C4       C      0.652043333333     0.416483333333     0.507771666667     0          
H1       H      0.640593333333     0.415978333333     0.546871666667     0          
Z0       Mg     0.641590000000     0.342570000000     0.867972500000     0          
O1       O      0.969430000000     0.148880000000     0.840095000000     0          
O2       O      0.927630000000     0.115240000000     0.902550000000     0          
O3       O      0.254940000000     0.471025000000     0.918457500000     0          
C1       C      0.926670000000     0.122900000000     0.856757500000     0          
C2       C      0.879180000000     0.103555000000     0.822707500000     0          
C3       C      0.212540000000     0.444630000000     0.938725000000     0          
C4       C      0.166300000000     0.423795000000     0.908895000000     0          
H1       H      0.165290000000     0.429015000000     0.869795000000     0          
Z0       Mg     0.314860000000     0.478225000000     0.867972500000     0          
O1       O      0.702240000000     0.335835000000     0.840095000000     0          
O2       O      0.769520000000     0.348575000000     0.902550000000     0          
O3       O      0.057950000000     0.156445000000     0.918457500000     0          
C1       C      0.754200000000     0.340435000000     0.856757500000     0          
C2       C      0.792890000000     0.336035000000     0.822707500000     0          
C3       C      0.110740000000     0.161640000000     0.938725000000     0          
C4       C      0.152410000000     0.159355000000     0.908895000000     0          
H1       H      0.141970000000     0.153630000000     0.869795000000     0          
Z0       Mg     0.043550000000     0.179205000000     0.867972500000     0          
O1       O      0.328330000000     0.015285000000     0.840095000000     0          
O2       O      0.302850000000     0.036185000000     0.902550000000     0          
O3       O      0.687110000000     0.372530000000     0.918457500000     0          
C1       C      0.319130000000     0.036665000000     0.856757500000     0          
C2       C      0.327930000000     0.060410000000     0.822707500000     0          
C3       C      0.676720000000     0.393730000000     0.938725000000     0          
C4       C      0.681290000000     0.416850000000     0.908895000000     0          
H1       H      0.692740000000     0.417355000000     0.869795000000     0          
Z0       Mg     0.358410000000     0.157430000000     0.882027500000     0          
O1       O      0.030570000000     0.351120000000     0.909905000000     0          
O2       O      0.072370000000     0.384760000000     0.847450000000     0          
O3       O      0.745060000000     0.028975000000     0.831542500000     0          
C1       C      0.073330000000     0.377100000000     0.893242500000     0          
C2       C      0.120820000000     0.396445000000     0.927292500000     0          
C3       C      0.787460000000     0.055370000000     0.811275000000     0          
C4       C      0.833700000000     0.076205000000     0.841105000000     0          
H1       H      0.834710000000     0.070985000000     0.880205000000     0          
Z0       Mg     0.685140000000     0.021775000000     0.882027500000     0          
O1       O      0.297760000000     0.164165000000     0.909905000000     0          
O2       O      0.230480000000     0.151425000000     0.847450000000     0          
O3       O      0.942050000000     0.343555000000     0.831542500000     0          
C1       C      0.245800000000     0.159565000000     0.893242500000     0          
C2       C      0.207110000000     0.163965000000     0.927292500000     0          
C3       C      0.889260000000     0.338360000000     0.811275000000     0          
C4       C      0.847590000000     0.340645000000     0.841105000000     0          
H1       H      0.858030000000     0.346370000000     0.880205000000     0          
Z0       Mg     0.956450000000     0.320795000000     0.882027500000     0          
O1       O      0.671670000000     0.484715000000     0.909905000000     0          
O2       O      0.697150000000     0.463815000000     0.847450000000     0          
O3       O      0.312890000000     0.127470000000     0.831542500000     0          
C1       C      0.680870000000     0.463335000000     0.893242500000     0          
C2       C      0.672070000000     0.439590000000     0.927292500000     0          
C3       C      0.323280000000     0.106270000000     0.811275000000     0          
C4       C      0.318710000000     0.083150000000     0.841105000000     0          
H1       H      0.307260000000     0.082645000000     0.880205000000     0          
Z0       Mg     0.308256666667     0.009236666667     0.951305833333     0          
O1       O      0.636096666667     0.315546666667     0.923428333333     0          
O2       O      0.594296666667     0.281906666667     0.985883333333     0          
O3       O      0.921606666667     0.137691666667     0.751790833333     0          
C1       C      0.593336666667     0.289566666667     0.940090833333     0          
C2       C      0.545846666667     0.270221666667     0.906040833333     0          
C3       C      0.879206666667     0.111296666667     0.772058333333     0          
C4       C      0.832966666667     0.090461666667     0.992228333333     0          
H1       H      0.831956666667     0.095681666667     0.953128333333     0          
Z0       Mg     0.981526666667     0.144891666667     0.951305833333     0          
O1       O      0.368906666667     0.002501666667     0.923428333333     0          
O2       O      0.436186666667     0.015241666667     0.985883333333     0          
O3       O      0.724616666667     0.323111666667     0.751790833333     0          
C1       C      0.420866666667     0.007101666667     0.940090833333     0          
C2       C      0.459556666667     0.002701666667     0.906040833333     0          
C3       C      0.777406666667     0.328306666667     0.772058333333     0          
C4       C      0.819076666667     0.326021666667     0.992228333333     0          
H1       H      0.808636666667     0.320296666667     0.953128333333     0          
Z0       Mg     0.710216666667     0.345871666667     0.951305833333     0          
O1       O      0.994996666667     0.181951666667     0.923428333333     0          
O2       O      0.969516666667     0.202851666667     0.985883333333     0          
O3       O      0.353776666667     0.039196666667     0.751790833333     0          
C1       C      0.985796666667     0.203331666667     0.940090833333     0          
C2       C      0.994596666667     0.227076666667     0.906040833333     0          
C3       C      0.343386666667     0.060396666667     0.772058333333     0          
C4       C      0.347956666667     0.083516666667     0.992228333333     0          
H1       H      0.359406666667     0.084021666667     0.953128333333     0          
Z0       Mg     0.025076666667     0.324096666667     0.965360833333     0          
O1       O      0.697236666667     0.017786666667     0.993238333333     0          
O2       O      0.739036666667     0.051426666667     0.930783333333     0          
O3       O      0.411726666667     0.195641666667     0.914875833333     0          
C1       C      0.739996666667     0.043766666667     0.976575833333     0          
C2       C      0.787486666667     0.063111666667     0.760625833333     0          
C3       C      0.454126666667     0.222036666667     0.894608333333     0          
C4       C      0.500366666667     0.242871666667     0.924438333333     0          
H1       H      0.501376666667     0.237651666667     0.963538333333     0          
Z0       Mg     0.351806666667     0.188441666667     0.965360833333     0          
O1       O      0.964426666667     0.330831666667     0.993238333333     0          
O2       O      0.897146666667     0.318091666667     0.930783333333     0          
O3       O      0.608716666667     0.010221666667     0.914875833333     0          
C1       C      0.912466666667     0.326231666667     0.976575833333     0          
C2       C      0.873776666667     0.330631666667     0.760625833333     0          
C3       C      0.555926666667     0.005026666667     0.894608333333     0          
C4       C      0.514256666667     0.007311666667     0.924438333333     0          
H1       H      0.524696666667     0.013036666667     0.963538333333     0          
Z0       Mg     0.623116666667     0.487461666667     0.965360833333     0          
O1       O      0.338336666667     0.151381666667     0.993238333333     0          
O2       O      0.363816666667     0.130481666667     0.930783333333     0          
O3       O      0.979556666667     0.294136666667     0.914875833333     0          
C1       C      0.347536666667     0.130001666667     0.976575833333     0          
C2       C      0.338736666667     0.106256666667     0.760625833333     0          
C3       C      0.989946666667     0.272936666667     0.894608333333     0          
C4       C      0.985376666667     0.249816666667     0.924438333333     0          
H1       H      0.973926666667     0.249311666667     0.963538333333     0          
Z0       Mg     0.974923333333     0.175903333333     0.784639166667     0          
O1       O      0.302763333333     0.482213333333     0.756761666667     0          
O2       O      0.260963333333     0.448573333333     0.819216666667     0          
O3       O      0.588273333333     0.304358333333     0.835124166667     0          
C1       C      0.260003333333     0.456233333333     0.773424166667     0          
C2       C      0.212513333333     0.436888333333     0.989374166667     0          
C3       C      0.545873333333     0.277963333333     0.855391666667     0          
C4       C      0.499633333333     0.257128333333     0.825561666667     0          
H1       H      0.498623333333     0.262348333333     0.786461666667     0          
Z0       Mg     0.648193333333     0.311558333333     0.784639166667     0          
O1       O      0.035573333333     0.169168333333     0.756761666667     0          
O2       O      0.102853333333     0.181908333333     0.819216666667     0          
O3       O      0.391283333333     0.489778333333     0.835124166667     0          
C1       C      0.087533333333     0.173768333333     0.773424166667     0          
C2       C      0.126223333333     0.169368333333     0.989374166667     0          
C3       C      0.444073333333     0.494973333333     0.855391666667     0          
C4       C      0.485743333333     0.492688333333     0.825561666667     0          
H1       H      0.475303333333     0.486963333333     0.786461666667     0          
Z0       Mg     0.376883333333     0.012538333333     0.784639166667     0          
O1       O      0.661663333333     0.348618333333     0.756761666667     0          
O2       O      0.636183333333     0.369518333333     0.819216666667     0          
O3       O      0.020443333333     0.205863333333     0.835124166667     0          
C1       C      0.652463333333     0.369998333333     0.773424166667     0          
C2       C      0.661263333333     0.393743333333     0.989374166667     0          
C3       C      0.010053333333     0.227063333333     0.855391666667     0          
C4       C      0.014623333333     0.250183333333     0.825561666667     0          
H1       H      0.026073333333     0.250688333333     0.786461666667     0          
Z0       Mg     0.691743333333     0.490763333333     0.798694166667     0          
O1       O      0.363903333333     0.184453333333     0.826571666667     0          
O2       O      0.405703333333     0.218093333333     0.764116666667     0          
O3       O      0.078393333333     0.362308333333     0.998209166667     0          
C1       C      0.406663333333     0.210433333333     0.809909166667     0          
C2       C      0.454153333333     0.229778333333     0.843959166667     0          
C3       C      0.120793333333     0.388703333333     0.977941666667     0          
C4       C      0.167033333333     0.409538333333     0.757771666667     0          
H1       H      0.168043333333     0.404318333333     0.796871666667     0          
Z0       Mg     0.018473333333     0.355108333333     0.798694166667     0          
O1       O      0.631093333333     0.497498333333     0.826571666667     0          
O2       O      0.563813333333     0.484758333333     0.764116666667     0          
O3       O      0.275383333333     0.176888333333     0.998209166667     0          
C1       C      0.579133333333     0.492898333333     0.809909166667     0          
C2       C      0.540443333333     0.497298333333     0.843959166667     0          
C3       C      0.222593333333     0.171693333333     0.977941666667     0          
C4       C      0.180923333333     0.173978333333     0.757771666667     0          
H1       H      0.191363333333     0.179703333333     0.796871666667     0          
Z0       Mg     0.289783333333     0.154128333333     0.798694166667     0          
O1       O      0.005003333333     0.318048333333     0.826571666667     0          
O2       O      0.030483333333     0.297148333333     0.764116666667     0          
O3       O      0.646223333333     0.460803333333     0.998209166667     0          
C1       C      0.014203333333     0.296668333333     0.809909166667     0          
C2       C      0.005403333333     0.272923333333     0.843959166667     0          
C3       C      0.656613333333     0.439603333333     0.977941666667     0          
C4       C      0.652043333333     0.416483333333     0.757771666667     0          
H1       H      0.640593333333     0.415978333333     0.796871666667     0          
Z0       Mg     0.641590000000     0.842570000000     0.117972500000     0          
O1       O      0.969430000000     0.648880000000     0.090095000000     0          
O2       O      0.927630000000     0.615240000000     0.152550000000     0          
O3       O      0.254940000000     0.971025000000     0.168457500000     0          
C1       C      0.926670000000     0.622900000000     0.106757500000     0          
C2       C      0.879180000000     0.603555000000     0.072707500000     0          
C3       C      0.212540000000     0.944630000000     0.188725000000     0          
C4       C      0.166300000000     0.923795000000     0.158895000000     0          
H1       H      0.165290000000     0.929015000000     0.119795000000     0          
Z0       Mg     0.314860000000     0.978225000000     0.117972500000     0          
O1       O      0.702240000000     0.835835000000     0.090095000000     0          
O2       O      0.769520000000     0.848575000000     0.152550000000     0          
O3       O      0.057950000000     0.656445000000     0.168457500000     0          
C1       C      0.754200000000     0.840435000000     0.106757500000     0          
C2       C      0.792890000000     0.836035000000     0.072707500000     0          
C3       C      0.110740000000     0.661640000000     0.188725000000     0          
C4       C      0.152410000000     0.659355000000     0.158895000000     0          
H1       H      0.141970000000     0.653630000000     0.119795000000     0          
Z0       Mg     0.043550000000     0.679205000000     0.117972500000     0          
O1       O      0.328330000000     0.515285000000     0.090095000000     0          
O2       O      0.302850000000     0.536185000000     0.152550000000     0          
O3       O      0.687110000000     0.872530000000     0.168457500000     0          
C1       C      0.319130000000     0.536665000000     0.106757500000     0          
C2       C      0.327930000000     0.560410000000     0.072707500000     0          
C3       C      0.676720000000     0.893730000000     0.188725000000     0          
C4       C      0.681290000000     0.916850000000     0.158895000000     0          
H1       H      0.692740000000     0.917355000000     0.119795000000     0          
Z0       Mg     0.358410000000     0.657430000000     0.132027500000     0          
O1       O      0.030570000000     0.851120000000     0.159905000000     0          
O2       O      0.072370000000     0.884760000000     0.097450000000     0          
O3       O      0.745060000000     0.528975000000     0.081542500000     0          
C1       C      0.073330000000     0.877100000000     0.143242500000     0          
C2       C      0.120820000000     0.896445000000     0.177292500000     0          
C3       C      0.787460000000     0.555370000000     0.061275000000     0          
C4       C      0.833700000000     0.576205000000     0.091105000000     0          
H1       H      0.834710000000     0.570985000000     0.130205000000     0          
Z0       Mg     0.685140000000     0.521775000000     0.132027500000     0          
O1       O      0.297760000000     0.664165000000     0.159905000000     0          
O2       O      0.230480000000     0.651425000000     0.097450000000     0          
O3       O      0.942050000000     0.843555000000     0.081542500000     0          
C1       C      0.245800000000     0.659565000000     0.143242500000     0          
C2       C      0.207110000000     0.663965000000     0.177292500000     0          
C3       C      0.889260000000     0.838360000000     0.061275000000     0          
C4       C      0.847590000000     0.840645000000     0.091105000000     0          
H1       H      0.858030000000     0.846370000000     0.130205000000     0          
Z0       Mg     0.956450000000     0.820795000000     0.132027500000     0          
O1       O      0.671670000000     0.984715000000     0.159905000000     0          
O2       O      0.697150000000     0.963815000000     0.097450000000     0          
O3       O      0.312890000000     0.627470000000     0.081542500000     0          
C1       C      0.680870000000     0.963335000000     0.143242500000     0          
C2       C      0.672070000000     0.939590000000     0.177292500000     0          
C3       C      0.323280000000     0.606270000000     0.061275000000     0          
C4       C      0.318710000000     0.583150000000     0.091105000000     0          
H1       H      0.307260000000     0.582645000000     0.130205000000     0          
Z0       Mg     0.308256666667     0.509236666667     0.201305833333     0          
O1       O      0.636096666667     0.815546666667     0.173428333333     0          
O2       O      0.594296666667     0.781906666667     0.235883333333     0          
O3       O      0.921606666667     0.637691666667     0.001790833333     0          
C1       C      0.593336666667     0.789566666667     0.190090833333     0          
C2       C      0.545846666667     0.770221666667     0.156040833333     0          
C3       C      0.879206666667     0.611296666667     0.022058333333     0          
C4       C      0.832966666667     0.590461666667     0.242228333333     0          
H1       H      0.831956666667     0.595681666667     0.203128333333     0          
Z0       Mg     0.981526666667     0.644891666667     0.201305833333     0          
O1       O      0.368906666667     0.502501666667     0.173428333333     0          
O2       O      0.436186666667     0.515241666667     0.235883333333     0          
O3       O      0.724616666667     0.823111666667     0.001790833333     0          
C1       C      0.420866666667     0.507101666667     0.190090833333     0          
C2       C      0.459556666667     0.502701666667     0.156040833333     0          
C3       C      0.777406666667     0.828306666667     0.022058333333     0          
C4       C      0.819076666667     0.826021666667     0.242228333333     0          
H1       H      0.808636666667     0.820296666667     0.203128333333     0          
Z0       Mg     0.710216666667     0.845871666667     0.201305833333     0          
O1       O      0.994996666667     0.681951666667     0.173428333333     0          
O2       O      0.969516666667     0.702851666667     0.235883333333     0          
O3       O      0.353776666667     0.539196666667     0.001790833333     0          
C1       C      0.985796666667     0.703331666667     0.190090833333     0          
C2       C      0.994596666667     0.727076666667     0.156040833333     0          
C3       C      0.343386666667     0.560396666667     0.022058333333     0          
C4       C      0.347956666667     0.583516666667     0.242228333333     0          
H1       H      0.359406666667     0.584021666667     0.203128333333     0          
Z0       Mg     0.025076666667     0.824096666667     0.215360833333     0          
O1       O      0.697236666667     0.517786666667     0.243238333333     0          
O2       O      0.739036666667     0.551426666667     0.180783333333     0          
O3       O      0.411726666667     0.695641666667     0.164875833333     0          
C1       C      0.739996666667     0.543766666667     0.226575833333     0          
C2       C      0.787486666667     0.563111666667     0.010625833333     0          
C3       C      0.454126666667     0.722036666667     0.144608333333     0          
C4       C      0.500366666667     0.742871666667     0.174438333333     0          
H1       H      0.501376666667     0.737651666667     0.213538333333     0          
Z0       Mg     0.351806666667     0.688441666667     0.215360833333     0          
O1       O      0.964426666667     0.830831666667     0.243238333333     0          
O2       O      0.897146666667     0.818091666667     0.180783333333     0          
O3       O      0.608716666667     0.510221666667     0.164875833333     0          
C1       C      0.912466666667     0.826231666667     0.226575833333     0          
C2       C      0.873776666667     0.830631666667     0.010625833333     0          
C3       C      0.555926666667     0.505026666667     0.144608333333     0          
C4       C      0.514256666667     0.507311666667     0.174438333333     0          
H1       H      0.524696666667     0.513036666667     0.213538333333     0          
Z0       Mg     0.623116666667     0.987461666667     0.215360833333     0          
O1       O      0.338336666667     0.651381666667     0.243238333333     0          
O2       O      0.363816666667     0.630481666667     0.180783333333     0          
O3       O      0.979556666667     0.794136666667     0.164875833333     0          
C1       C      0.347536666667     0.630001666667     0.226575833333     0          
C2       C      0.338736666667     0.606256666667     0.010625833333     0          
C3       C      0.989946666667     0.772936666667     0.144608333333     0          
C4       C      0.985376666667     0.749816666667     0.174438333333     0          
H1       H      0.973926666667     0.749311666667     0.213538333333     0          
Z0       Mg     0.974923333333     0.675903333333     0.034639166667     0          
O1       O      0.302763333333     0.982213333333     0.006761666667     0          
O2       O      0.260963333333     0.948573333333     0.069216666667     0          
O3       O      0.588273333333     0.804358333333     0.085124166667     0          
C1       C      0.260003333333     0.956233333333     0.023424166667     0          
C2       C      0.212513333333     0.936888333333     0.239374166667     0          
C3       C      0.545873333333     0.777963333333     0.105391666667     0          
C4       C      0.499633333333     0.757128333333     0.075561666667     0          
H1       H      0.498623333333     0.762348333333     0.036461666667     0          
Z0       Mg     0.648193333333     0.811558333333     0.034639166667     0          
O1       O      0.035573333333     0.669168333333     0.006761666667     0          
O2       O      0.102853333333     0.681908333333     0.069216666667     0          
O3       O      0.391283333333     0.989778333333     0.085124166667     0          
C1       C      0.087533333333     0.673768333333     0.023424166667     0          
C2       C      0.126223333333     0.669368333333     0.239374166667     0          
C3       C      0.444073333333     0.994973333333     0.105391666667     0          
C4       C      0.485743333333     0.992688333333     0.075561666667     0          
H1       H      0.475303333333     0.986963333333     0.036461666667     0          
Z0       Mg     0.376883333333     0.512538333333     0.034639166667     0          
O1       O      0.661663333333     0.848618333333     0.006761666667     0          
O2       O      0.636183333333     0.869518333333     0.069216666667     0          
O3       O      0.020443333333     0.705863333333     0.085124166667     0          
C1       C      0.652463333333     0.869998333333     0.023424166667     0          
C2       C      0.661263333333     0.893743333333     0.239374166667     0          
C3       C      0.010053333333     0.727063333333     0.105391666667     0          
C4       C      0.014623333333     0.750183333333     0.075561666667     0          
H1       H      0.026073333333     0.750688333333     0.036461666667     0          
Z0       Mg     0.691743333333     0.990763333333     0.048694166667     0          
O1       O      0.363903333333     0.684453333333     0.076571666667     0          
O2       O      0.405703333333     0.718093333333     0.014116666667     0          
O3       O      0.078393333333     0.862308333333     0.248209166667     0          
C1       C      0.406663333333     0.710433333333     0.059909166667     0          
C2       C      0.454153333333     0.729778333333     0.093959166667     0          
C3       C      0.120793333333     0.888703333333     0.227941666667     0          
C4       C      0.167033333333     0.909538333333     0.007771666667     0          
H1       H      0.168043333333     0.904318333333     0.046871666667     0          
Z0       Mg     0.018473333333     0.855108333333     0.048694166667     0          
O1       O      0.631093333333     0.997498333333     0.076571666667     0          
O2       O      0.563813333333     0.984758333333     0.014116666667     0          
O3       O      0.275383333333     0.676888333333     0.248209166667     0          
C1       C      0.579133333333     0.992898333333     0.059909166667     0          
C2       C      0.540443333333     0.997298333333     0.093959166667     0          
C3       C      0.222593333333     0.671693333333     0.227941666667     0          
C4       C      0.180923333333     0.673978333333     0.007771666667     0          
H1       H      0.191363333333     0.679703333333     0.046871666667     0          
Z0       Mg     0.289783333333     0.654128333333     0.048694166667     0          
O1       O      0.005003333333     0.818048333333     0.076571666667     0          
O2       O      0.030483333333     0.797148333333     0.014116666667     0          
O3       O      0.646223333333     0.960803333333     0.248209166667     0          
C1       C      0.014203333333     0.796668333333     0.059909166667     0          
C2       C      0.005403333333     0.772923333333     0.093959166667     0          
C3       C      0.656613333333     0.939603333333     0.227941666667     0          
C4       C      0.652043333333     0.916483333333     0.007771666667     0          
H1       H      0.640593333333     0.915978333333     0.046871666667     0          
Z0       Mg     0.641590000000     0.842570000000     0.367972500000     0          
O1       O      0.969430000000     0.648880000000     0.340095000000     0          
O2       O      0.927630000000     0.615240000000     0.402550000000     0          
O3       O      0.254940000000     0.971025000000     0.418457500000     0          
C1       C      0.926670000000     0.622900000000     0.356757500000     0          
C2       C      0.879180000000     0.603555000000     0.322707500000     0          
C3       C      0.212540000000     0.944630000000     0.438725000000     0          
C4       C      0.166300000000     0.923795000000     0.408895000000     0          
H1       H      0.165290000000     0.929015000000     0.369795000000     0          
Z0       Mg     0.314860000000     0.978225000000     0.367972500000     0          
O1       O      0.702240000000     0.835835000000     0.340095000000     0          
O2       O      0.769520000000     0.848575000000     0.402550000000     0          
O3       O      0.057950000000     0.656445000000     0.418457500000     0          
C1       C      0.754200000000     0.840435000000     0.356757500000     0          
C2       C      0.792890000000     0.836035000000     0.322707500000     0          
C3       C      0.110740000000     0.661640000000     0.438725000000     0          
C4       C      0.152410000000     0.659355000000     0.408895000000     0          
H1       H      0.141970000000     0.653630000000     0.369795000000     0          
Z0       Mg     0.043550000000     0.679205000000     0.367972500000     0          
O1       O      0.328330000000     0.515285000000     0.340095000000     0          
O2       O      0.302850000000     0.536185000000     0.402550000000     0          
O3       O      0.687110000000     0.872530000000     0.418457500000     0          
C1       C      0.319130000000     0.536665000000     0.356757500000     0          
C2       C      0.327930000000     0.560410000000     0.322707500000     0          
C3       C      0.676720000000     0.893730000000     0.438725000000     0          
C4       C      0.681290000000     0.916850000000     0.408895000000     0          
H1       H      0.692740000000     0.917355000000     0.369795000000     0          
Z0       Mg     0.358410000000     0.657430000000     0.382027500000     0          
O1       O      0.030570000000     0.851120000000     0.409905000000     0          
O2       O      0.072370000000     0.884760000000     0.347450000000     0          
O3       O      0.745060000000     0.528975000000     0.331542500000     0          
C1       C      0.073330000000     0.877100000000     0.393242500000     0          
C2       C      0.120820000000     0.896445000000     0.427292500000     0          
C3       C      0.787460000000     0.555370000000     0.311275000000     0          
C4       C      0.833700000000     0.576205000000     0.341105000000     0          
H1       H      0.834710000000     0.570985000000     0.380205000000     0          
Z0       Mg     0.685140000000     0.521775000000     0.382027500000     0          
O1       O      0.297760000000     0.664165000000     0.409905000000     0          
O2       O      0.230480000000     0.651425000000     0.347450000000     0          
O3       O      0.942050000000     0.843555000000     0.331542500000     0          
C1       C      0.245800000000     0.659565000000     0.393242500000     0          
C2       C      0.207110000000     0.663965000000     0.427292500000     0          
C3       C      0.889260000000     0.838360000000     0.311275000000     0          
C4       C      0.847590000000     0.840645000000     0.341105000000     0          
H1       H      0.858030000000     0.846370000000     0.380205000000     0          
Z0       Mg     0.956450000000     0.820795000000     0.382027500000     0          
O1       O      0.671670000000     0.984715000000     0.409905000000     0          
O2       O      0.697150000000     0.963815000000     0.347450000000     0          
O3       O      0.312890000000     0.627470000000     0.331542500000     0          
C1       C      0.680870000000     0.963335000000     0.393242500000     0          
C2       C      0.672070000000     0.939590000000     0.427292500000     0          
C3       C      0.323280000000     0.606270000000     0.311275000000     0          
C4       C      0.318710000000     0.583150000000     0.341105000000     0          
H1       H      0.307260000000     0.582645000000     0.380205000000     0          
Z0       Mg     0.308256666667     0.509236666667     0.451305833333     0          
O1       O      0.636096666667     0.815546666667     0.423428333333     0          
O2       O      0.594296666667     0.781906666667     0.485883333333     0          
O3       O      0.921606666667     0.637691666667     0.251790833333     0          
C1       C      0.593336666667     0.789566666667     0.440090833333     0          
C2       C      0.545846666667     0.770221666667     0.406040833333     0          
C3       C      0.879206666667     0.611296666667     0.272058333333     0          
C4       C      0.832966666667     0.590461666667     0.492228333333     0          
H1       H      0.831956666667     0.595681666667     0.453128333333     0          
Z0       Mg     0.981526666667     0.644891666667     0.451305833333     0          
O1       O      0.368906666667     0.502501666667     0.423428333333     0          
O2       O      0.436186666667     0.515241666667     0.485883333333     0          
O3       O      0.724616666667     0.823111666667     0.251790833333     0          
C1       C      0.420866666667     0.507101666667     0.440090833333     0          
C2       C      0.459556666667     0.502701666667     0.406040833333     0          
C3       C      0.777406666667     0.828306666667     0.272058333333     0          
C4       C      0.819076666667     0.826021666667     0.492228333333     0          
H1       H      0.808636666667     0.820296666667     0.453128333333     0          
Z0       Mg     0.710216666667     0.845871666667     0.451305833333     0          
O1       O      0.994996666667     0.681951666667     0.423428333333     0          
O2       O      0.969516666667     0.702851666667     0.485883333333     0          
O3       O      0.353776666667     0.539196666667     0.251790833333     0          
C1       C      0.985796666667     0.703331666667     0.440090833333     0          
C2       C      0.994596666667     0.727076666667     0.406040833333     0          
C3       C      0.343386666667     0.560396666667     0.272058333333     0          
C4       C      0.347956666667     0.583516666667     0.492228333333     0          
H1       H      0.359406666667     0.584021666667     0.453128333333     0          
Z0       Mg     0.025076666667     0.824096666667     0.465360833333     0          
O1       O      0.697236666667     0.517786666667     0.493238333333     0          
O2       O      0.739036666667     0.551426666667     0.430783333333     0          
O3       O      0.411726666667     0.695641666667     0.414875833333     0          
C1       C      0.739996666667     0.543766666667     0.476575833333     0          
C2       C      0.787486666667     0.563111666667     0.260625833333     0          
C3       C      0.454126666667     0.722036666667     0.394608333333     0          
C4       C      0.500366666667     0.742871666667     0.424438333333     0          
H1       H      0.501376666667     0.737651666667     0.463538333333     0          
Z0       Mg     0.351806666667     0.688441666667     0.465360833333     0          
O1       O      0.964426666667     0.830831666667     0.493238333333     0          
O2       O      0.897146666667     0.818091666667     0.430783333333     0          
O3       O      0.608716666667     0.510221666667     0.414875833333     0          
C1       C      0.912466666667     0.826231666667     0.476575833333     0          
C2       C      0.873776666667     0.830631666667     0.260625833333     0          
C3       C      0.555926666667     0.505026666667     0.394608333333     0          
C4       C      0.514256666667     0.507311666667     0.424438333333     0          
H1       H      0.524696666667     0.513036666667     0.463538333333     0          
Z0       Mg     0.623116666667     0.987461666667     0.465360833333     0          
O1       O      0.338336666667     0.651381666667     0.493238333333     0          
O2       O      0.363816666667     0.630481666667     0.430783333333     0          
O3       O      0.979556666667     0.794136666667     0.414875833333     0          
C1       C      0.347536666667     0.630001666667     0.476575833333     0          
C2       C      0.338736666667     0.606256666667     0.260625833333     0          
C3       C      0.989946666667     0.772936666667     0.394608333333     0          
C4       C      0.985376666667     0.749816666667     0.424438333333     0          
H1       H      0.973926666667     0.749311666667     0.463538333333     0          
Z0       Mg     0.974923333333     0.675903333333     0.284639166667     0          
O1       O      0.302763333333     0.982213333333     0.256761666667     0          
O2       O      0.260963333333     0.948573333333     0.319216666667     0          
O3       O      0.588273333333     0.804358333333     0.335124166667     0          
C1       C      0.260003333333     0.956233333333     0.273424166667     0          
C2       C      0.212513333333     0.936888333333     0.489374166667     0          
C3       C      0.545873333333     0.777963333333     0.355391666667     0          
C4       C      0.499633333333     0.757128333333     0.325561666667     0          
H1       H      0.498623333333     0.762348333333     0.286461666667     0          
Z0       Mg     0.648193333333     0.811558333333     0.284639166667     0          
O1       O      0.035573333333     0.669168333333     0.256761666667     0          
O2       O      0.102853333333     0.681908333333     0.319216666667     0          
O3       O      0.391283333333     0.989778333333     0.335124166667     0          
C1       C      0.087533333333     0.673768333333     0.273424166667     0          
C2       C      0.126223333333     0.669368333333     0.489374166667     0          
C3       C      0.444073333333     0.994973333333     0.355391666667     0          
C4       C      0.485743333333     0.992688333333     0.325561666667     0          
H1       H      0.475303333333     0.986963333333     0.286461666667     0          
Z0       Mg     0.376883333333     0.512538333333     0.284639166667     0          
O1       O      0.661663333333     0.848618333333     0.256761666667     0          
O2       O      0.636183333333     0.869518333333     0.319216666667     0          
O3       O      0.020443333333     0.705863333333     0.335124166667     0          
C1       C      0.652463333333     0.869998333333     0.273424166667     0          
C2       C      0.661263333333     0.893743333333     0.489374166667     0          
C3       C      0.010053333333     0.727063333333     0.355391666667     0          
C4       C      0.014623333333     0.750183333333     0.325561666667     0          
H1       H      0.026073333333     0.750688333333     0.286461666667     0          
Z0       Mg     0.691743333333     0.990763333333     0.298694166667     0          
O1       O      0.363903333333     0.684453333333     0.326571666667     0          
O2       O      0.405703333333     0.718093333333     0.264116666667     0          
O3       O      0.078393333333     0.862308333333     0.498209166667     0          
C1       C      0.406663333333     0.710433333333     0.309909166667     0          
C2       C      0.454153333333     0.729778333333     0.343959166667     0          
C3       C      0.120793333333     0.888703333333     0.477941666667     0          
C4       C      0.167033333333     0.909538333333     0.257771666667     0          
H1       H      0.168043333333     0.904318333333     0.296871666667     0          
Z0       Mg     0.018473333333     0.855108333333     0.298694166667     0          
O1       O      0.631093333333     0.997498333333     0.326571666667     0          
O2       O      0.563813333333     0.984758333333     0.264116666667     0          
O3       O      0.275383333333     0.676888333333     0.498209166667     0          
C1       C      0.579133333333     0.992898333333     0.309909166667     0          
C2       C      0.540443333333     0.997298333333     0.343959166667     0          
C3       C      0.222593333333     0.671693333333     0.477941666667     0          
C4       C      0.180923333333     0.673978333333     0.257771666667     0          
H1       H      0.191363333333     0.679703333333     0.296871666667     0          
Z0       Mg     0.289783333333     0.654128333333     0.298694166667     0          
O1       O      0.005003333333     0.818048333333     0.326571666667     0          
O2       O      0.030483333333     0.797148333333     0.264116666667     0          
O3       O      0.646223333333     0.960803333333     0.498209166667     0          
C1       C      0.014203333333     0.796668333333     0.309909166667     0          
C2       C      0.005403333333     0.772923333333     0.343959166667     0          
C3       C      0.656613333333     0.939603333333     0.477941666667     0          
C4       C      0.652043333333     0.916483333333     0.257771666667     0          
H1       H      0.640593333333     0.915978333333     0.296871666667     0          
Z0       Mg     0.641590000000     0.842570000000     0.617972500000     0          
O1       O      0.969430000000     0.648880000000     0.590095000000     0          
O2       O      0.927630000000     0.615240000000     0.652550000000     0          
O3       O      0.254940000000     0.971025000000     0.668457500000     0          
C1       C      0.926670000000     0.622900000000     0.606757500000     0          
C2       C      0.879180000000     0.603555000000     0.572707500000     0          
C3       C      0.212540000000     0.944630000000     0.688725000000     0          
C4       C      0.166300000000     0.923795000000     0.658895000000     0          
H1       H      0.165290000000     0.929015000000     0.619795000000     0          
Z0       Mg     0.314860000000     0.978225000000     0.617972500000     0          
O1       O      0.702240000000     0.835835000000     0.590095000000     0          
O2       O      0.769520000000     0.848575000000     0.652550000000     0          
O3       O      0.057950000000     0.656445000000     0.668457500000     0          
C1       C      0.754200000000     0.840435000000     0.606757500000     0          
C2       C      0.792890000000     0.836035000000     0.572707500000     0          
C3       C      0.110740000000     0.661640000000     0.688725000000     0          
C4       C      0.152410000000     0.659355000000     0.658895000000     0          
H1       H      0.141970000000     0.653630000000     0.619795000000     0          
Z0       Mg     0.043550000000     0.679205000000     0.617972500000     0          
O1       O      0.328330000000     0.515285000000     0.590095000000     0          
O2       O      0.302850000000     0.536185000000     0.652550000000     0          
O3       O      0.687110000000     0.872530000000     0.668457500000     0          
C1       C      0.319130000000     0.536665000000     0.606757500000     0          
C2       C      0.327930000000     0.560410000000     0.572707500000     0          
C3       C      0.676720000000     0.893730000000     0.688725000000     0          
C4       C      0.681290000000     0.916850000000     0.658895000000     0          
H1       H      0.692740000000     0.917355000000     0.619795000000     0          
Z0       Mg     0.358410000000     0.657430000000     0.632027500000     0          
O1       O      0.030570000000     0.851120000000     0.659905000000     0          
O2       O      0.072370000000     0.884760000000     0.597450000000     0          
O3       O      0.745060000000     0.528975000000     0.581542500000     0          
C1       C      0.073330000000     0.877100000000     0.643242500000     0          
C2       C      0.120820000000     0.896445000000     0.677292500000     0          
C3       C      0.787460000000     0.555370000000     0.561275000000     0          
C4       C      0.833700000000     0.576205000000     0.591105000000     0          
H1       H      0.834710000000     0.570985000000     0.630205000000     0          
Z0       Mg     0.685140000000     0.521775000000     0.632027500000     0          
O1       O      0.297760000000     0.664165000000     0.659905000000     0          
O2       O      0.230480000000     0.651425000000     0.597450000000     0          
O3       O      0.942050000000     0.843555000000     0.581542500000     0          
C1       C      0.245800000000     0.659565000000     0.643242500000     0          
C2       C      0.207110000000     0.663965000000     0.677292500000     0          
C3       C      0.889260000000     0.838360000000     0.561275000000     0          
C4       C      0.847590000000     0.840645000000     0.591105000000     0          
H1       H      0.858030000000     0.846370000000     0.630205000000     0          
Z0       Mg     0.956450000000     0.820795000000     0.632027500000     0          
O1       O      0.671670000000     0.984715000000     0.659905000000     0          
O2       O      0.697150000000     0.963815000000     0.597450000000     0          
O3       O      0.312890000000     0.627470000000     0.581542500000     0          
C1       C      0.680870000000     0.963335000000     0.643242500000     0          
C2       C      0.672070000000     0.939590000000     0.677292500000     0          
C3       C      0.323280000000     0.606270000000     0.561275000000     0          
C4       C      0.318710000000     0.583150000000     0.591105000000     0          
H1       H      0.307260000000     0.582645000000     0.630205000000     0          
Z0       Mg     0.308256666667     0.509236666667     0.701305833333     0          
O1       O      0.636096666667     0.815546666667     0.673428333333     0          
O2       O      0.594296666667     0.781906666667     0.735883333333     0          
O3       O      0.921606666667     0.637691666667     0.501790833333     0          
C1       C      0.593336666667     0.789566666667     0.690090833333     0          
C2       C      0.545846666667     0.770221666667     0.656040833333     0          
C3       C      0.879206666667     0.611296666667     0.522058333333     0          
C4       C      0.832966666667     0.590461666667     0.742228333333     0          
H1       H      0.831956666667     0.595681666667     0.703128333333     0          
Z0       Mg     0.981526666667     0.644891666667     0.701305833333     0          
O1       O      0.368906666667     0.502501666667     0.673428333333     0          
O2       O      0.436186666667     0.515241666667     0.735883333333     0          
O3       O      0.724616666667     0.823111666667     0.501790833333     0          
C1       C      0.420866666667     0.507101666667     0.690090833333     0          
C2       C      0.459556666667     0.502701666667     0.656040833333     0          
C3       C      0.777406666667     0.828306666667     0.522058333333     0          
C4       C      0.819076666667     0.826021666667     0.742228333333     0          
H1       H      0.808636666667     0.820296666667     0.703128333333     0          
Z0       Mg     0.710216666667     0.845871666667     0.701305833333     0          
O1       O      0.994996666667     0.681951666667     0.673428333333     0          
O2       O      0.969516666667     0.702851666667     0.735883333333     0          
O3       O      0.353776666667     0.539196666667     0.501790833333     0          
C1       C      0.985796666667     0.703331666667     0.690090833333     0          
C2       C      0.994596666667     0.727076666667     0.656040833333     0          
C3       C      0.343386666667     0.560396666667     0.522058333333     0          
C4       C      0.347956666667     0.583516666667     0.742228333333     0          
H1       H      0.359406666667     0.584021666667     0.703128333333     0          
Z0       Mg     0.025076666667     0.824096666667     0.715360833333     0          
O1       O      0.697236666667     0.517786666667     0.743238333333     0          
O2       O      0.739036666667     0.551426666667     0.680783333333     0          
O3       O      0.411726666667     0.695641666667     0.664875833333     0          
C1       C      0.739996666667     0.543766666667     0.726575833333     0          
C2       C      0.787486666667     0.563111666667     0.510625833333     0          
C3       C      0.454126666667     0.722036666667     0.644608333333     0          
C4       C      0.500366666667     0.742871666667     0.674438333333     0          
H1       H      0.501376666667     0.737651666667     0.713538333333     0          
Z0       Mg     0.351806666667     0.688441666667     0.715360833333     0          
O1       O      0.964426666667     0.830831666667     0.743238333333     0          
O2       O      0.897146666667     0.818091666667     0.680783333333     0          
O3       O      0.608716666667     0.510221666667     0.664875833333     0          
C1       C      0.912466666667     0.826231666667     0.726575833333     0          
C2       C      0.873776666667     0.830631666667     0.510625833333     0          
C3       C      0.555926666667     0.505026666667     0.644608333333     0          
C4       C      0.514256666667     0.507311666667     0.674438333333     0          
H1       H      0.524696666667     0.513036666667     0.713538333333     0          
Z0       Mg     0.623116666667     0.987461666667     0.715360833333     0          
O1       O      0.338336666667     0.651381666667     0.743238333333     0          
O2       O      0.363816666667     0.630481666667     0.680783333333     0          
O3       O      0.979556666667     0.794136666667     0.664875833333     0          
C1       C      0.347536666667     0.630001666667     0.726575833333     0          
C2       C      0.338736666667     0.606256666667     0.510625833333     0          
C3       C      0.989946666667     0.772936666667     0.644608333333     0          
C4       C      0.985376666667     0.749816666667     0.674438333333     0          
H1       H      0.973926666667     0.749311666667     0.713538333333     0          
Z0       Mg     0.974923333333     0.675903333333     0.534639166667     0          
O1       O      0.302763333333     0.982213333333     0.506761666667     0          
O2       O      0.260963333333     0.948573333333     0.569216666667     0          
O3       O      0.588273333333     0.804358333333     0.585124166667     0          
C1       C      0.260003333333     0.956233333333     0.523424166667     0          
C2       C      0.212513333333     0.936888333333     0.739374166667     0          
C3       C      0.545873333333     0.777963333333     0.605391666667     0          
C4       C      0.499633333333     0.757128333333     0.575561666667     0          
H1       H      0.498623333333     0.762348333333     0.536461666667     0          
Z0       Mg     0.648193333333     0.811558333333     0.534639166667     0          
O1       O      0.035573333333     0.669168333333     0.506761666667     0          
O2       O      0.102853333333     0.681908333333     0.569216666667     0          
O3       O      0.391283333333     0.989778333333     0.585124166667     0          
C1       C      0.087533333333     0.673768333333     0.523424166667     0          
C2       C      0.126223333333     0.669368333333     0.739374166667     0          
C3       C      0.444073333333     0.994973333333     0.605391666667     0          
C4       C      0.485743333333     0.992688333333     0.575561666667     0          
H1       H      0.475303333333     0.986963333333     0.536461666667     0          
Z0       Mg     0.376883333333     0.512538333333     0.534639166667     0          
O1       O      0.661663333333     0.848618333333     0.506761666667     0          
O2       O      0.636183333333     0.869518333333     0.569216666667     0          
O3       O      0.020443333333     0.705863333333     0.585124166667     0          
C1       C      0.652463333333     0.869998333333     0.523424166667     0          
C2       C      0.661263333333     0.893743333333     0.739374166667     0          
C3       C      0.010053333333     0.727063333333     0.605391666667     0          
C4       C      0.014623333333     0.750183333333     0.575561666667     0          
H1       H      0.026073333333     0.750688333333     0.536461666667     0          
Z0       Mg     0.691743333333     0.990763333333     0.548694166667     0          
O1       O      0.363903333333     0.684453333333     0.576571666667     0          
O2       O      0.405703333333     0.718093333333     0.514116666667     0          
O3       O      0.078393333333     0.862308333333     0.748209166667     0          
C1       C      0.406663333333     0.710433333333     0.559909166667     0          
C2       C      0.454153333333     0.729778333333     0.593959166667     0          
C3       C      0.120793333333     0.888703333333     0.727941666667     0          
C4       C      0.167033333333     0.909538333333     0.507771666667     0          
H1       H      0.168043333333     0.904318333333     0.546871666667     0          
Z0       Mg     0.018473333333     0.855108333333     0.548694166667     0          
O1       O      0.631093333333     0.997498333333     0.576571666667     0          
O2       O      0.563813333333     0.984758333333     0.514116666667     0          
O3       O      0.275383333333     0.676888333333     0.748209166667     0          
C1       C      0.579133333333     0.992898333333     0.559909166667     0          
C2       C      0.540443333333     0.997298333333     0.593959166667     0          
C3       C      0.222593333333     0.671693333333     0.727941666667     0          
C4       C      0.180923333333     0.673978333333     0.507771666667     0          
H1       H      0.191363333333     0.679703333333     0.546871666667     0          
Z0       Mg     0.289783333333     0.654128333333     0.548694166667     0          
O1       O      0.005003333333     0.818048333333     0.576571666667     0          
O2       O      0.030483333333     0.797148333333     0.514116666667     0          
O3       O      0.646223333333     0.960803333333     0.748209166667     0          
C1       C      0.014203333333     0.796668333333     0.559909166667     0          
C2       C      0.005403333333     0.772923333333     0.593959166667     0          
C3       C      0.656613333333     0.939603333333     0.727941666667     0          
C4       C      0.652043333333     0.916483333333     0.507771666667     0          
H1       H      0.640593333333     0.915978333333     0.546871666667     0          
Z0       Mg     0.641590000000     0.842570000000     0.867972500000     0          
O1       O      0.969430000000     0.648880000000     0.840095000000     0          
O2       O      0.927630000000     0.615240000000     0.902550000000     0          
O3       O      0.254940000000     0.971025000000     0.918457500000     0          
C1       C      0.926670000000     0.622900000000     0.856757500000     0          
C2       C      0.879180000000     0.603555000000     0.822707500000     0          
C3       C      0.212540000000     0.944630000000     0.938725000000     0          
C4       C      0.166300000000     0.923795000000     0.908895000000     0          
H1       H      0.165290000000     0.929015000000     0.869795000000     0          
Z0       Mg     0.314860000000     0.978225000000     0.867972500000     0          
O1       O      0.702240000000     0.835835000000     0.840095000000     0          
O2       O      0.769520000000     0.848575000000     0.902550000000     0          
O3       O      0.057950000000     0.656445000000     0.918457500000     0          
C1       C      0.754200000000     0.840435000000     0.856757500000     0          
C2       C      0.792890000000     0.836035000000     0.822707500000     0          
C3       C      0.110740000000     0.661640000000     0.938725000000     0          
C4       C      0.152410000000     0.659355000000     0.908895000000     0          
H1       H      0.141970000000     0.653630000000     0.869795000000     0          
Z0       Mg     0.043550000000     0.679205000000     0.867972500000     0          
O1       O      0.328330000000     0.515285000000     0.840095000000     0          
O2       O      0.302850000000     0.536185000000     0.902550000000     0          
O3       O      0.687110000000     0.872530000000     0.918457500000     0          
C1       C      0.319130000000     0.536665000000     0.856757500000     0          
C2       C      0.327930000000     0.560410000000     0.822707500000     0          
C3       C      0.676720000000     0.893730000000     0.938725000000     0          
C4       C      0.681290000000     0.916850000000     0.908895000000     0          
H1       H      0.692740000000     0.917355000000     0.869795000000     0          
Z0       Mg     0.358410000000     0.657430000000     0.882027500000     0          
O1       O      0.030570000000     0.851120000000     0.909905000000     0          
O2       O      0.072370000000     0.884760000000     0.847450000000     0          
O3       O      0.745060000000     0.528975000000     0.831542500000     0          
C1       C      0.073330000000     0.877100000000     0.893242500000     0          
C2       C      0.120820000000     0.896445000000     0.927292500000     0          
C3       C      0.787460000000     0.555370000000     0.811275000000     0          
C4       C      0.833700000000     0.576205000000     0.841105000000     0          
H1       H      0.834710000000     0.570985000000     0.880205000000     0          
Z0       Mg     0.685140000000     0.521775000000     0.882027500000     0          
O1       O      0.297760000000     0.664165000000     0.909905000000     0          
O2       O      0.230480000000     0.651425000000     0.847450000000     0          
O3       O      0.942050000000     0.843555000000     0.831542500000     0          
C1       C      0.245800000000     0.659565000000     0.893242500000     0          
C2       C      0.207110000000     0.663965000000     0.927292500000     0          
C3       C      0.889260000000     0.838360000000     0.811275000000     0          
C4       C      0.847590000000     0.840645000000     0.841105000000     0          
H1       H      0.858030000000     0.846370000000     0.880205000000     0          
Z0       Mg     0.956450000000     0.820795000000     0.882027500000     0          
O1       O      0.671670000000     0.984715000000     0.909905000000     0          
O2       O      0.697150000000     0.963815000000     0.847450000000     0          
O3       O      0.312890000000     0.627470000000     0.831542500000     0          
C1       C      0.680870000000     0.963335000000     0.893242500000     0          
C2       C      0.672070000000     0.939590000000     0.927292500000     0          
C3       C      0.323280000000     0.606270000000     0.811275000000     0          
C4       C      0.318710000000     0.583150000000     0.841105000000     0          
H1       H      0.307260000000     0.582645000000     0.880205000000     0          
Z0       Mg     0.308256666667     0.509236666667     0.951305833333     0          
O1       O      0.636096666667     0.815546666667     0.923428333333     0          
O2       O      0.594296666667     0.781906666667     0.985883333333     0          
O3       O      0.921606666667     0.637691666667     0.751790833333     0          
C1       C      0.593336666667     0.789566666667     0.940090833333     0          
C2       C      0.545846666667     0.770221666667     0.906040833333     0          
C3       C      0.879206666667     0.611296666667     0.772058333333     0          
C4       C      0.832966666667     0.590461666667     0.992228333333     0          
H1       H      0.831956666667     0.595681666667     0.953128333333     0          
Z0       Mg     0.981526666667     0.644891666667     0.951305833333     0          
O1       O      0.368906666667     0.502501666667     0.923428333333     0          
O2       O      0.436186666667     0.515241666667     0.985883333333     0          
O3       O      0.724616666667     0.823111666667     0.751790833333     0          
C1       C      0.420866666667     0.507101666667     0.940090833333     0          
C2       C      0.459556666667     0.502701666667     0.906040833333     0          
C3       C      0.777406666667     0.828306666667     0.772058333333     0          
C4       C      0.819076666667     0.826021666667     0.992228333333     0          
H1       H      0.808636666667     0.820296666667     0.953128333333     0          
Z0       Mg     0.710216666667     0.845871666667     0.951305833333     0          
O1       O      0.994996666667     0.681951666667     0.923428333333     0          
O2       O      0.969516666667     0.702851666667     0.985883333333     0          
O3       O      0.353776666667     0.539196666667     0.751790833333     0          
C1       C      0.985796666667     0.703331666667     0.940090833333     0          
C2       C      0.994596666667     0.727076666667     0.906040833333     0          
C3       C      0.343386666667     0.560396666667     0.772058333333     0          
C4       C      0.347956666667     0.583516666667     0.992228333333     0          
H1       H      0.359406666667     0.584021666667     0.953128333333     0          
Z0       Mg     0.025076666667     0.824096666667     0.965360833333     0          
O1       O      0.697236666667     0.517786666667     0.993238333333     0          
O2       O      0.739036666667     0.551426666667     0.930783333333     0          
O3       O      0.411726666667     0.695641666667     0.914875833333     0          
C1       C      0.739996666667     0.543766666667     0.976575833333     0          
C2       C      0.787486666667     0.563111666667     0.760625833333     0          
C3       C      0.454126666667     0.722036666667     0.894608333333     0          
C4       C      0.500366666667     0.742871666667     0.924438333333     0          
H1       H      0.501376666667     0.737651666667     0.963538333333     0          
Z0       Mg     0.351806666667     0.688441666667     0.965360833333     0          
O1       O      0.964426666667     0.830831666667     0.993238333333     0          
O2       O      0.897146666667     0.818091666667     0.930783333333     0          
O3       O      0.608716666667     0.510221666667     0.914875833333     0          
C1       C      0.912466666667     0.826231666667     0.976575833333     0          
C2       C      0.873776666667     0.830631666667     0.760625833333     0          
C3       C      0.555926666667     0.505026666667     0.894608333333     0          
C4       C      0.514256666667     0.507311666667     0.924438333333     0          
H1       H      0.524696666667     0.513036666667     0.963538333333     0          
Z0       Mg     0.623116666667     0.987461666667     0.965360833333     0          
O1       O      0.338336666667     0.651381666667     0.993238333333     0          
O2       O      0.363816666667     0.630481666667     0.930783333333     0          
O3       O      0.979556666667     0.794136666667     0.914875833333     0          
C1       C      0.347536666667     0.630001666667     0.976575833333     0          
C2       C      0.338736666667     0.606256666667     0.760625833333     0          
C3       C      0.989946666667     0.772936666667     0.894608333333     0          
C4       C      0.985376666667     0.749816666667     0.924438333333     0          
H1       H      0.973926666667     0.749311666667     0.963538333333     0          
Z0       Mg     0.974923333333     0.675903333333     0.784639166667     0          
O1       O      0.302763333333     0.982213333333     0.756761666667     0          
O2       O      0.260963333333     0.948573333333     0.819216666667     0          
O3       O      0.588273333333     0.804358333333     0.835124166667     0          
C1       C      0.260003333333     0.956233333333     0.773424166667     0          
C2       C      0.212513333333     0.936888333333     0.989374166667     0          
C3       C      0.545873333333     0.777963333333     0.855391666667     0          
C4       C      0.499633333333     0.757128333333     0.825561666667     0          
H1       H      0.498623333333     0.762348333333     0.786461666667     0          
Z0       Mg     0.648193333333     0.811558333333     0.784639166667     0          
O1       O      0.035573333333     0.669168333333     0.756761666667     0          
O2       O      0.102853333333     0.681908333333     0.819216666667     0          
O3       O      0.391283333333     0.989778333333     0.835124166667     0          
C1       C      0.087533333333     0.673768333333     0.773424166667     0          
C2       C      0.126223333333     0.669368333333     0.989374166667     0          
C3       C      0.444073333333     0.994973333333     0.855391666667     0          
C4       C      0.485743333333     0.992688333333     0.825561666667     0          
H1       H      0.475303333333     0.986963333333     0.786461666667     0          
Z0       Mg     0.376883333333     0.512538333333     0.784639166667     0          
O1       O      0.661663333333     0.848618333333     0.756761666667     0          
O2       O      0.636183333333     0.869518333333     0.819216666667     0          
O3       O      0.020443333333     0.705863333333     0.835124166667     0          
C1       C      0.652463333333     0.869998333333     0.773424166667     0          
C2       C      0.661263333333     0.893743333333     0.989374166667     0          
C3       C      0.010053333333     0.727063333333     0.855391666667     0          
C4       C      0.014623333333     0.750183333333     0.825561666667     0          
H1       H      0.026073333333     0.750688333333     0.786461666667     0          
Z0       Mg     0.691743333333     0.990763333333     0.798694166667     0          
O1       O      0.363903333333     0.684453333333     0.826571666667     0          
O2       O      0.405703333333     0.718093333333     0.764116666667     0          
O3       O      0.078393333333     0.862308333333     0.998209166667     0          
C1       C      0.406663333333     0.710433333333     0.809909166667     0          
C2       C      0.454153333333     0.729778333333     0.843959166667     0          
C3       C      0.120793333333     0.888703333333     0.977941666667     0          
C4       C      0.167033333333     0.909538333333     0.757771666667     0          
H1       H      0.168043333333     0.904318333333     0.796871666667     0          
Z0       Mg     0.018473333333     0.855108333333     0.798694166667     0          
O1       O      0.631093333333     0.997498333333     0.826571666667     0          
O2       O      0.563813333333     0.984758333333     0.764116666667     0          
O3       O      0.275383333333     0.676888333333     0.998209166667     0          
C1       C      0.579133333333     0.992898333333     0.809909166667     0          
C2       C      0.540443333333     0.997298333333     0.843959166667     0          
C3       C      0.222593333333     0.671693333333     0.977941666667     0          
C4       C      0.180923333333     0.673978333333     0.757771666667     0          
H1       H      0.191363333333     0.679703333333     0.796871666667     0          
Z0       Mg     0.289783333333     0.654128333333     0.798694166667     0          
O1       O      0.005003333333     0.818048333333     0.826571666667     0          
O2       O      0.030483333333     0.797148333333     0.764116666667     0          
O3       O      0.646223333333     0.960803333333     0.998209166667     0          
C1       C      0.014203333333     0.796668333333     0.809909166667     0          
C2       C      0.005403333333     0.772923333333     0.843959166667     0          
C3       C      0.656613333333     0.939603333333     0.977941666667     0          
C4       C      0.652043333333     0.916483333333     0.757771666667     0          
H1       H      0.640593333333     0.915978333333     0.796871666667     0          


