data_Movie_nu1000_modified_1.1.2_100.000000_0.000000_allcomponents

_cell_length_a  39.97000000
_cell_length_b  40.00000000
_cell_length_c  33.16000000
_cell_angle_alpha  90.00000000
_cell_angle_beta   90.00000000
_cell_angle_gamma  120.00000000


_symmetry_space_group_name_Hall ' P 1'
_symmetry_space_group_name_H-M  'P 1'
_symmetry_Int_Tables_number     1

loop_
_atom_site_label
_atom_site_type_symbol
_atom_site_forcefield_label
_atom_site_Cartn_x
_atom_site_Cartn_y
_atom_site_Cartn_z
_atom_site_charge
P        P   P      13.59000000  21.64900000  15.36400000  0.00000000
O        O   O      14.77700000  20.53000000  15.87700000  0.00000000
O        O   O      13.97200000  22.20600000  13.79300000  0.00000000
H        H   H      13.30600000  22.83300000  13.50500000  0.00000000
O        O   O      12.06000000  20.88600000  15.34100000  0.00000000
C        C   C      13.54800000  23.06000000  16.51400000  0.00000000
H        H   H      14.50500000  23.53700000  16.52700000  0.00000000
H        H   H      12.80500000  23.76000000  16.19200000  0.00000000
N        N   N      13.21900000  22.58200000  17.86400000  0.00000000
H        H   H      12.32500000  22.13500000  17.85100000  0.00000000
C        C   C      13.18500000  23.72000000  18.79200000  0.00000000
H        H   H      12.44200000  24.42000000  18.47200000  0.00000000
H        H   H      14.14300000  24.19800000  18.80700000  0.00000000
C        C   C      12.84100000  23.21900000  20.20700000  0.00000000
O        O   O      13.17900000  22.06100000  20.56400000  0.00000000
O        O   O      12.13700000  24.07000000  21.11600000  0.00000000
H        H   H      11.60600000  23.53500000  21.71000000  0.00000000
