data_Movie_nu1000_modified_1.1.2_100.000000_0.000000_allcomponents

_cell_length_a  39.97000000
_cell_length_b  40.00000000
_cell_length_c  33.16000000
_cell_angle_alpha  90.00000000
_cell_angle_beta   90.00000000
_cell_angle_gamma  120.00000000


_symmetry_space_group_name_Hall ' P 1'
_symmetry_space_group_name_H-M  'P 1'
_symmetry_Int_Tables_number     1

loop_
_atom_site_label
_atom_site_type_symbol
_atom_site_forcefield_label
_atom_site_Cartn_x
_atom_site_Cartn_y
_atom_site_Cartn_z
_atom_site_charge
P        P   P      12.48500000  21.87000000  16.66400000  0.00000000
O        O   O      11.87700000  21.18400000  18.10700000  0.00000000
O        O   O      14.19200000  21.93800000  16.73800000  0.00000000
H        H   H      14.53200000  22.32200000  15.92800000  0.00000000
O        O   O      12.01000000  20.90900000  15.33100000  0.00000000
C        C   C      11.82000000  23.55400000  16.46600000  0.00000000
H        H   H      12.11700000  24.15400000  17.29900000  0.00000000
H        H   H      12.20000000  23.98300000  15.56200000  0.00000000
N        N   N      10.35300000  23.49600000  16.40100000  0.00000000
H        H   H      10.07500000  22.93400000  15.62200000  0.00000000
C        C   C      9.81600000  24.85500000  16.24100000  0.00000000
H        H   H      10.19600000  25.28400000  15.33700000  0.00000000
H        H   H      10.11200000  25.45600000  17.07500000  0.00000000
C        C   C      8.27800000  24.79500000  16.17400000  0.00000000
O        O   O      7.65700000  23.88500000  16.78200000  0.00000000
O        O   O      7.55700000  25.77300000  15.42000000  0.00000000
H        H   H      6.74700000  25.38300000  15.08300000  0.00000000
