data_Movie_nu1000_modified_1.1.2_100.000000_0.000000_allcomponents

_cell_length_a  39.97000000
_cell_length_b  40.00000000
_cell_length_c  33.16000000
_cell_angle_alpha  90.00000000
_cell_angle_beta   90.00000000
_cell_angle_gamma  120.00000000


_symmetry_space_group_name_Hall ' P 1'
_symmetry_space_group_name_H-M  'P 1'
_symmetry_Int_Tables_number     1

loop_
_atom_site_label
_atom_site_type_symbol
_atom_site_forcefield_label
_atom_site_Cartn_x
_atom_site_Cartn_y
_atom_site_Cartn_z
_atom_site_charge
P        P   P      12.56300000  21.83500000  16.50000000  0.00000000
O        O   O      11.97800000  21.12000000  17.94000000  0.00000000
O        O   O      14.27200000  21.86700000  16.53200000  0.00000000
H        H   H      14.59900000  22.26800000  15.72400000  0.00000000
O        O   O      12.03400000  20.92100000  15.15500000  0.00000000
C        C   C      11.92600000  23.53600000  16.36600000  0.00000000
H        H   H      12.25700000  24.10700000  17.20800000  0.00000000
H        H   H      12.29200000  23.98300000  15.46500000  0.00000000
N        N   N      10.45700000  23.50800000  16.33900000  0.00000000
H        H   H      10.14800000  22.97400000  15.55200000  0.00000000
C        C   C      9.94300000  24.88100000  16.23000000  0.00000000
H        H   H      10.30800000  25.32900000  15.32900000  0.00000000
H        H   H      10.27300000  25.45300000  17.07200000  0.00000000
C        C   C      8.40400000  24.85200000  16.20200000  0.00000000
O        O   O      7.78000000  23.93800000  16.80100000  0.00000000
O        O   O      7.68300000  25.86500000  15.49400000  0.00000000
H        H   H      6.85700000  25.50000000  15.16900000  0.00000000
