data_Movie_nu1000_modified_1.1.2_100.000000_0.000000_allcomponents

_cell_length_a  39.97000000
_cell_length_b  40.00000000
_cell_length_c  33.16000000
_cell_angle_alpha  90.00000000
_cell_angle_beta   90.00000000
_cell_angle_gamma  120.00000000


_symmetry_space_group_name_Hall ' P 1'
_symmetry_space_group_name_H-M  'P 1'
_symmetry_Int_Tables_number     1

loop_
_atom_site_label
_atom_site_type_symbol
_atom_site_forcefield_label
_atom_site_Cartn_x
_atom_site_Cartn_y
_atom_site_Cartn_z
_atom_site_charge
P        P   P      12.51600000  21.87000000  16.52300000  0.00000000
O        O   O      11.85500000  21.14900000  17.92600000  0.00000000
O        O   O      14.22000000  21.91300000  16.65200000  0.00000000
H        H   H      14.59100000  22.31700000  15.86400000  0.00000000
O        O   O      12.07100000  20.95400000  15.14900000  0.00000000
C        C   C      11.87800000  23.56700000  16.35400000  0.00000000
H        H   H      12.15600000  24.13900000  17.21400000  0.00000000
H        H   H      12.29100000  24.01800000  15.47600000  0.00000000
N        N   N      10.41300000  23.53000000  16.24300000  0.00000000
H        H   H      10.15300000  22.99500000  15.44000000  0.00000000
C        C   C      9.89700000  24.90000000  16.10700000  0.00000000
H        H   H      10.31000000  25.35100000  15.22900000  0.00000000
H        H   H      10.17500000  25.47300000  16.96700000  0.00000000
C        C   C      8.36200000  24.86200000  15.99100000  0.00000000
O        O   O      7.71100000  23.94300000  16.55300000  0.00000000
O        O   O      7.67600000  25.87100000  15.24400000  0.00000000
H        H   H      6.87200000  25.50100000  14.87200000  0.00000000
