data_Movie_nu1000_modified_1.1.2_100.000000_0.000000_allcomponents

_cell_length_a  39.97000000
_cell_length_b  40.00000000
_cell_length_c  33.16000000
_cell_angle_alpha  90.00000000
_cell_angle_beta   90.00000000
_cell_angle_gamma  120.00000000


_symmetry_space_group_name_Hall ' P 1'
_symmetry_space_group_name_H-M  'P 1'
_symmetry_Int_Tables_number     1

loop_
_atom_site_label
_atom_site_type_symbol
_atom_site_forcefield_label
_atom_site_Cartn_x
_atom_site_Cartn_y
_atom_site_Cartn_z
_atom_site_charge
P        P   P      12.78300000  21.73200000  16.26600000  0.00000000
O        O   O      12.19000000  20.95700000  17.67100000  0.00000000
O        O   O      14.49200000  21.75300000  16.30500000  0.00000000
H        H   H      14.82400000  22.18800000  15.51600000  0.00000000
O        O   O      12.25400000  20.88000000  14.88000000  0.00000000
C        C   C      12.15600000  23.44000000  16.20500000  0.00000000
H        H   H      12.48600000  23.97200000  17.07200000  0.00000000
H        H   H      12.52700000  23.92400000  15.32600000  0.00000000
N        N   N      10.68700000  23.42200000  16.17200000  0.00000000
H        H   H      10.37800000  22.92400000  15.36200000  0.00000000
C        C   C      10.18000000  24.80000000  16.12200000  0.00000000
H        H   H      10.55100000  25.28500000  15.24300000  0.00000000
H        H   H      10.51000000  25.33300000  16.98900000  0.00000000
C        C   C      8.64100000  24.78100000  16.08800000  0.00000000
O        O   O      8.01000000  23.84500000  16.64400000  0.00000000
O        O   O      7.92800000  25.82800000  15.42200000  0.00000000
H        H   H      7.10100000  25.48200000  15.07800000  0.00000000
