data_Movie_nu1000_modified_1.1.2_100.000000_0.000000_allcomponents

_cell_length_a  39.97000000
_cell_length_b  40.00000000
_cell_length_c  33.16000000
_cell_angle_alpha  90.00000000
_cell_angle_beta   90.00000000
_cell_angle_gamma  120.00000000


_symmetry_space_group_name_Hall ' P 1'
_symmetry_space_group_name_H-M  'P 1'
_symmetry_Int_Tables_number     1

loop_
_atom_site_label
_atom_site_type_symbol
_atom_site_forcefield_label
_atom_site_Cartn_x
_atom_site_Cartn_y
_atom_site_Cartn_z
_atom_site_charge
P        P   P      13.66900000  21.67200000  14.89300000  0.00000000
O        O   O      14.89200000  20.55300000  15.31300000  0.00000000
O        O   O      13.75600000  22.01200000  13.22000000  0.00000000
H        H   H      13.06900000  22.64000000  12.98500000  0.00000000
O        O   O      12.13700000  21.00700000  15.26200000  0.00000000
C        C   C      13.90500000  23.21100000  15.83700000  0.00000000
H        H   H      14.86300000  23.62700000  15.60700000  0.00000000
H        H   H      13.14000000  23.91200000  15.57500000  0.00000000
N        N   N      13.83100000  22.92000000  17.27600000  0.00000000
H        H   H      12.93500000  22.53100000  17.49100000  0.00000000
C        C   C      14.02100000  24.16200000  18.03800000  0.00000000
H        H   H      13.25600000  24.86300000  17.77600000  0.00000000
H        H   H      14.98000000  24.57800000  17.80800000  0.00000000
C        C   C      13.94300000  23.85700000  19.54500000  0.00000000
O        O   O      14.30200000  22.73100000  19.97900000  0.00000000
O        O   O      13.46300000  24.85300000  20.45300000  0.00000000
H        H   H      13.04000000  24.42600000  21.20100000  0.00000000
