data_Movie_nu1000_modified_1.1.2_100.000000_0.000000_allcomponents

_cell_length_a  39.97000000
_cell_length_b  40.00000000
_cell_length_c  33.16000000
_cell_angle_alpha  90.00000000
_cell_angle_beta   90.00000000
_cell_angle_gamma  120.00000000


_symmetry_space_group_name_Hall ' P 1'
_symmetry_space_group_name_H-M  'P 1'
_symmetry_Int_Tables_number     1

loop_
_atom_site_label
_atom_site_type_symbol
_atom_site_forcefield_label
_atom_site_Cartn_x
_atom_site_Cartn_y
_atom_site_Cartn_z
_atom_site_charge
P        P   P      13.38800000  21.66700000  15.38700000  0.00000000
O        O   O      14.56300000  20.50900000  15.83900000  0.00000000
O        O   O      13.63400000  22.12500000  13.75800000  0.00000000
H        H   H      12.97500000  22.77400000  13.50500000  0.00000000
O        O   O      11.82600000  20.99100000  15.55900000  0.00000000
C        C   C      13.53600000  23.13200000  16.45900000  0.00000000
H        H   H      14.51300000  23.55400000  16.35100000  0.00000000
H        H   H      12.80100000  23.85600000  16.17600000  0.00000000
N        N   N      13.32400000  22.73800000  17.85800000  0.00000000
H        H   H      12.41100000  22.34300000  17.95900000  0.00000000
C        C   C      13.44300000  23.92100000  18.72300000  0.00000000
H        H   H      12.70800000  24.64500000  18.44100000  0.00000000
H        H   H      14.42000000  24.34400000  18.61600000  0.00000000
C        C   C      13.22100000  23.50800000  20.19000000  0.00000000
O        O   O      13.53400000  22.35100000  20.57300000  0.00000000
O        O   O      12.65800000  24.44100000  21.11800000  0.00000000
H        H   H      12.16500000  23.96500000  21.78900000  0.00000000
