data_Movie_nu1000_modified_1.1.2_100.000000_0.000000_allcomponents

_cell_length_a  39.97000000
_cell_length_b  40.00000000
_cell_length_c  33.16000000
_cell_angle_alpha  90.00000000
_cell_angle_beta   90.00000000
_cell_angle_gamma  120.00000000


_symmetry_space_group_name_Hall ' P 1'
_symmetry_space_group_name_H-M  'P 1'
_symmetry_Int_Tables_number     1

loop_
_atom_site_label
_atom_site_type_symbol
_atom_site_forcefield_label
_atom_site_Cartn_x
_atom_site_Cartn_y
_atom_site_Cartn_z
_atom_site_charge
P        P   P      10.70100000  1.77300000  27.11100000  0.00000000
O        O   O      11.87500000  0.84800000  27.94200000  0.00000000
O        O   O      10.62800000  1.26900000  25.47900000  0.00000000
H        H   H      9.96900000  1.78800000  25.01300000  0.00000000
O        O   O      9.17400000  1.54900000  27.84700000  0.00000000
C        C   C      11.15600000  3.53500000  27.18100000  0.00000000
H        H   H      12.11100000  3.67500000  26.72100000  0.00000000
H        H   H      10.42100000  4.11400000  26.66100000  0.00000000
N        N   N      11.21900000  3.96900000  28.58400000  0.00000000
H        H   H      10.32600000  3.83700000  29.01400000  0.00000000
C        C   C      11.58500000  5.39100000  28.64100000  0.00000000
H        H   H      10.85000000  5.97000000  28.12200000  0.00000000
H        H   H      12.54100000  5.53200000  28.18100000  0.00000000
C        C   C      11.65100000  5.84600000  30.11100000  0.00000000
O        O   O      11.97000000  5.02500000  31.01000000  0.00000000
O        O   O      11.35000000  7.20100000  30.45400000  0.00000000
H        H   H      10.98100000  7.23200000  31.34000000  0.00000000
