data_Movie_nu1000_modified_1.1.2_100.000000_0.000000_allcomponents

_cell_length_a  39.97000000
_cell_length_b  40.00000000
_cell_length_c  33.16000000
_cell_angle_alpha  90.00000000
_cell_angle_beta   90.00000000
_cell_angle_gamma  120.00000000


_symmetry_space_group_name_Hall ' P 1'
_symmetry_space_group_name_H-M  'P 1'
_symmetry_Int_Tables_number     1

loop_
_atom_site_label
_atom_site_type_symbol
_atom_site_forcefield_label
_atom_site_Cartn_x
_atom_site_Cartn_y
_atom_site_Cartn_z
_atom_site_charge
P        P   P      12.23000000  21.96200000  16.77100000  0.00000000
O        O   O      11.48200000  21.28300000  18.15100000  0.00000000
O        O   O      13.92200000  22.02000000  17.01000000  0.00000000
H        H   H      14.34200000  22.40000000  16.23500000  0.00000000
O        O   O      11.88000000  20.99900000  15.40200000  0.00000000
C        C   C      11.59700000  23.64800000  16.50500000  0.00000000
H        H   H      11.81600000  24.25000000  17.36200000  0.00000000
H        H   H      12.06600000  24.07300000  15.64200000  0.00000000
N        N   N      10.14300000  23.59900000  16.30000000  0.00000000
H        H   H      9.93800000  23.03600000  15.50000000  0.00000000
C        C   C      9.63200000  24.96000000  16.08500000  0.00000000
H        H   H      10.09900000  25.38500000  15.22100000  0.00000000
H        H   H      9.85000000  25.56300000  16.94200000  0.00000000
C        C   C      8.10800000  24.90800000  15.87000000  0.00000000
O        O   O      7.42500000  24.00400000  16.41800000  0.00000000
O        O   O      7.46800000  25.88800000  15.04700000  0.00000000
H        H   H      6.69200000  25.50100000  14.63500000  0.00000000
