data_Movie_nu1000_modified_1.1.2_100.000000_0.000000_allcomponents

_cell_length_a  39.97000000
_cell_length_b  40.00000000
_cell_length_c  33.16000000
_cell_angle_alpha  90.00000000
_cell_angle_beta   90.00000000
_cell_angle_gamma  120.00000000


_symmetry_space_group_name_Hall ' P 1'
_symmetry_space_group_name_H-M  'P 1'
_symmetry_Int_Tables_number     1

loop_
_atom_site_label
_atom_site_type_symbol
_atom_site_forcefield_label
_atom_site_Cartn_x
_atom_site_Cartn_y
_atom_site_Cartn_z
_atom_site_charge
P        P   P      12.39800000  21.99200000  16.42200000  0.00000000
O        O   O      11.75500000  21.23400000  17.81400000  0.00000000
O        O   O      14.09900000  22.08900000  16.55900000  0.00000000
H        H   H      14.45900000  22.51300000  15.77700000  0.00000000
O        O   O      11.98800000  21.07800000  15.03500000  0.00000000
C        C   C      11.70500000  23.66900000  16.27000000  0.00000000
H        H   H      11.96100000  24.24000000  17.13700000  0.00000000
H        H   H      12.10700000  24.14300000  15.39900000  0.00000000
N        N   N      10.24200000  23.58600000  16.15200000  0.00000000
H        H   H      10.00300000  23.05200000  15.34200000  0.00000000
C        C   C      9.68300000  24.94000000  16.02900000  0.00000000
H        H   H      10.08500000  25.41400000  15.15700000  0.00000000
H        H   H      9.93900000  25.51200000  16.89600000  0.00000000
C        C   C      8.15100000  24.85300000  15.90600000  0.00000000
O        O   O      7.52800000  23.90700000  16.45400000  0.00000000
O        O   O      7.43500000  25.84700000  15.16700000  0.00000000
H        H   H      6.64500000  25.45700000  14.78700000  0.00000000
