data_Movie_nu1000_modified_1.1.2_100.000000_0.000000_allcomponents

_cell_length_a  39.97000000
_cell_length_b  40.00000000
_cell_length_c  33.16000000
_cell_angle_alpha  90.00000000
_cell_angle_beta   90.00000000
_cell_angle_gamma  120.00000000


_symmetry_space_group_name_Hall ' P 1'
_symmetry_space_group_name_H-M  'P 1'
_symmetry_Int_Tables_number     1

loop_
_atom_site_label
_atom_site_type_symbol
_atom_site_forcefield_label
_atom_site_Cartn_x
_atom_site_Cartn_y
_atom_site_Cartn_z
_atom_site_charge
P        P   P      12.59800000  21.88500000  16.38800000  0.00000000
O        O   O      11.99500000  21.12900000  17.79900000  0.00000000
O        O   O      14.30500000  21.94900000  16.45900000  0.00000000
H        H   H      14.64200000  22.37200000  15.66700000  0.00000000
O        O   O      12.11700000  20.99000000  15.01300000  0.00000000
C        C   C      11.93200000  23.57600000  16.27400000  0.00000000
H        H   H      12.23200000  24.13600000  17.13500000  0.00000000
H        H   H      12.30900000  24.04900000  15.39100000  0.00000000
N        N   N      10.46400000  23.52200000  16.21300000  0.00000000
H        H   H      10.18400000  22.99800000  15.40900000  0.00000000
C        C   C      9.92700000  24.88600000  16.12100000  0.00000000
H        H   H      10.30300000  25.35900000  15.23800000  0.00000000
H        H   H      10.22700000  25.44700000  16.98200000  0.00000000
C        C   C      8.38900000  24.83000000  16.05700000  0.00000000
O        O   O      7.77000000  23.89200000  16.62300000  0.00000000
O        O   O      7.66500000  25.84300000  15.35400000  0.00000000
H        H   H      6.85300000  25.47000000  15.00200000  0.00000000
