data_Movie_nu1000_modified_1.1.2_100.000000_0.000000_allcomponents

_cell_length_a  39.97000000
_cell_length_b  40.00000000
_cell_length_c  33.16000000
_cell_angle_alpha  90.00000000
_cell_angle_beta   90.00000000
_cell_angle_gamma  120.00000000


_symmetry_space_group_name_Hall ' P 1'
_symmetry_space_group_name_H-M  'P 1'
_symmetry_Int_Tables_number     1

loop_
_atom_site_label
_atom_site_type_symbol
_atom_site_forcefield_label
_atom_site_Cartn_x
_atom_site_Cartn_y
_atom_site_Cartn_z
_atom_site_charge
P        P   P      12.59200000  21.85900000  16.43200000  0.00000000
O        O   O      11.97700000  21.11900000  17.84500000  0.00000000
O        O   O      14.29900000  21.91500000  16.51300000  0.00000000
H        H   H      14.64400000  22.33000000  15.72000000  0.00000000
O        O   O      12.11500000  20.95400000  15.06100000  0.00000000
C        C   C      11.93600000  23.55200000  16.29900000  0.00000000
H        H   H      12.23400000  24.11800000  17.15600000  0.00000000
H        H   H      12.32100000  24.01600000  15.41400000  0.00000000
N        N   N      10.46900000  23.50500000  16.22900000  0.00000000
H        H   H      10.19000000  22.97600000  15.42700000  0.00000000
C        C   C      9.93900000  24.87200000  16.12100000  0.00000000
H        H   H      10.32300000  25.33500000  15.23600000  0.00000000
H        H   H      10.23600000  25.43800000  16.97900000  0.00000000
C        C   C      8.40100000  24.82200000  16.04800000  0.00000000
O        O   O      7.77400000  23.89300000  16.61800000  0.00000000
O        O   O      7.68700000  25.83300000  15.33100000  0.00000000
H        H   H      6.87600000  25.46100000  14.97700000  0.00000000
