data_Movie_nu1000_modified_1.1.2_100.000000_0.000000_allcomponents

_cell_length_a  39.97000000
_cell_length_b  40.00000000
_cell_length_c  33.16000000
_cell_angle_alpha  90.00000000
_cell_angle_beta   90.00000000
_cell_angle_gamma  120.00000000


_symmetry_space_group_name_Hall ' P 1'
_symmetry_space_group_name_H-M  'P 1'
_symmetry_Int_Tables_number     1

loop_
_atom_site_label
_atom_site_type_symbol
_atom_site_forcefield_label
_atom_site_Cartn_x
_atom_site_Cartn_y
_atom_site_Cartn_z
_atom_site_charge
P        P   P      12.31500000  21.92300000  16.72900000  0.00000000
O        O   O      11.64700000  21.22900000  18.14200000  0.00000000
O        O   O      14.02000000  21.95200000  16.85700000  0.00000000
H        H   H      14.39400000  22.34100000  16.06400000  0.00000000
O        O   O      11.86100000  20.99300000  15.36700000  0.00000000
C        C   C      11.69300000  23.62400000  16.53600000  0.00000000
H        H   H      11.97700000  24.20500000  17.38700000  0.00000000
H        H   H      12.11100000  24.05800000  15.65100000  0.00000000
N        N   N      10.22800000  23.60000000  16.42500000  0.00000000
H        H   H      9.96300000  23.05600000  15.62900000  0.00000000
C        C   C      9.72600000  24.97200000  16.26900000  0.00000000
H        H   H      10.14300000  25.40700000  15.38400000  0.00000000
H        H   H      10.00900000  25.55500000  17.12100000  0.00000000
C        C   C      8.19000000  24.94700000  16.15300000  0.00000000
O        O   O      7.53000000  24.04300000  16.72800000  0.00000000
O        O   O      7.51500000  25.95200000  15.39200000  0.00000000
H        H   H      6.70700000  25.58500000  15.02500000  0.00000000
