data_Movie_nu1000_modified_1.1.2_100.000000_0.000000_allcomponents

_cell_length_a  39.97000000
_cell_length_b  40.00000000
_cell_length_c  33.16000000
_cell_angle_alpha  90.00000000
_cell_angle_beta   90.00000000
_cell_angle_gamma  120.00000000


_symmetry_space_group_name_Hall ' P 1'
_symmetry_space_group_name_H-M  'P 1'
_symmetry_Int_Tables_number     1

loop_
_atom_site_label
_atom_site_type_symbol
_atom_site_forcefield_label
_atom_site_Cartn_x
_atom_site_Cartn_y
_atom_site_Cartn_z
_atom_site_charge
P        P   P      12.76000000  21.80300000  16.37600000  0.00000000
O        O   O      12.13300000  21.04200000  17.77300000  0.00000000
O        O   O      14.46700000  21.83600000  16.46100000  0.00000000
H        H   H      14.81900000  22.26300000  15.67700000  0.00000000
O        O   O      12.27600000  20.93100000  14.98600000  0.00000000
C        C   C      12.12400000  23.50600000  16.27600000  0.00000000
H        H   H      12.42700000  24.05100000  17.14500000  0.00000000
H        H   H      12.51700000  23.98200000  15.40100000  0.00000000
N        N   N      10.65700000  23.47800000  16.20200000  0.00000000
H        H   H      10.37400000  22.96800000  15.39000000  0.00000000
C        C   C      10.14400000  24.85300000  16.12100000  0.00000000
H        H   H      10.53500000  25.32900000  15.24600000  0.00000000
H        H   H      10.44600000  25.39800000  16.99000000  0.00000000
C        C   C      8.60600000  24.82300000  16.04400000  0.00000000
O        O   O      7.96600000  23.89000000  16.59400000  0.00000000
O        O   O      7.90500000  25.85700000  15.34600000  0.00000000
H        H   H      7.09000000  25.50200000  14.98400000  0.00000000
