data_Movie_nu1000_modified_1.1.2_100.000000_0.000000_allcomponents

_cell_length_a  39.97000000
_cell_length_b  40.00000000
_cell_length_c  33.16000000
_cell_angle_alpha  90.00000000
_cell_angle_beta   90.00000000
_cell_angle_gamma  120.00000000


_symmetry_space_group_name_Hall ' P 1'
_symmetry_space_group_name_H-M  'P 1'
_symmetry_Int_Tables_number     1

loop_
_atom_site_label
_atom_site_type_symbol
_atom_site_forcefield_label
_atom_site_Cartn_x
_atom_site_Cartn_y
_atom_site_Cartn_z
_atom_site_charge
P        P   P      12.31300000  21.96500000  16.69200000  0.00000000
O        O   O      11.67700000  21.26400000  18.11600000  0.00000000
O        O   O      14.01400000  22.08500000  16.82600000  0.00000000
H        H   H      14.37000000  22.47800000  16.02600000  0.00000000
O        O   O      11.91400000  20.98600000  15.34700000  0.00000000
C        C   C      11.60400000  23.62700000  16.46500000  0.00000000
H        H   H      11.85400000  24.23800000  17.30600000  0.00000000
H        H   H      12.00300000  24.06600000  15.57400000  0.00000000
N        N   N      10.14300000  23.52400000  16.35000000  0.00000000
H        H   H      9.91000000  22.95200000  15.56400000  0.00000000
C        C   C      9.57000000  24.86500000  16.16600000  0.00000000
H        H   H      9.96800000  25.30400000  15.27500000  0.00000000
H        H   H      9.81900000  25.47800000  17.00700000  0.00000000
C        C   C      8.03900000  24.75800000  16.04600000  0.00000000
O        O   O      7.42400000  23.83200000  16.63600000  0.00000000
O        O   O      7.31500000  25.71200000  15.26400000  0.00000000
H        H   H      6.52900000  25.29600000  14.90000000  0.00000000
