data_Movie_nu1000_modified_1.1.2_100.000000_0.000000_allcomponents

_cell_length_a  39.97000000
_cell_length_b  40.00000000
_cell_length_c  33.16000000
_cell_angle_alpha  90.00000000
_cell_angle_beta   90.00000000
_cell_angle_gamma  120.00000000


_symmetry_space_group_name_Hall ' P 1'
_symmetry_space_group_name_H-M  'P 1'
_symmetry_Int_Tables_number     1

loop_
_atom_site_label
_atom_site_type_symbol
_atom_site_forcefield_label
_atom_site_Cartn_x
_atom_site_Cartn_y
_atom_site_Cartn_z
_atom_site_charge
P        P   P      13.59100000  21.76300000  15.37200000  0.00000000
O        O   O      14.84400000  20.69600000  15.83500000  0.00000000
O        O   O      13.91900000  22.38500000  13.81300000  0.00000000
H        H   H      13.21500000  22.98300000  13.55300000  0.00000000
O        O   O      12.10300000  20.91900000  15.34800000  0.00000000
C        C   C      13.49100000  23.13600000  16.56400000  0.00000000
H        H   H      14.42200000  23.66300000  16.57800000  0.00000000
H        H   H      12.70700000  23.80400000  16.27300000  0.00000000
N        N   N      13.21000000  22.60200000  17.90300000  0.00000000
H        H   H      12.34000000  22.10900000  17.89000000  0.00000000
C        C   C      13.12900000  23.71000000  18.86500000  0.00000000
H        H   H      12.34400000  24.37800000  18.57600000  0.00000000
H        H   H      14.06000000  24.23800000  18.88100000  0.00000000
C        C   C      12.83400000  23.15100000  20.27000000  0.00000000
O        O   O      13.23900000  22.00300000  20.58800000  0.00000000
O        O   O      12.10000000  23.93700000  21.21200000  0.00000000
H        H   H      11.60700000  23.35600000  21.79800000  0.00000000
