data_Movie_nu1000_modified_1.1.2_100.000000_0.000000_allcomponents

_cell_length_a  39.97000000
_cell_length_b  40.00000000
_cell_length_c  33.16000000
_cell_angle_alpha  90.00000000
_cell_angle_beta   90.00000000
_cell_angle_gamma  120.00000000


_symmetry_space_group_name_Hall ' P 1'
_symmetry_space_group_name_H-M  'P 1'
_symmetry_Int_Tables_number     1

loop_
_atom_site_label
_atom_site_type_symbol
_atom_site_forcefield_label
_atom_site_Cartn_x
_atom_site_Cartn_y
_atom_site_Cartn_z
_atom_site_charge
P        P   P      13.56900000  21.76400000  14.93200000  0.00000000
O        O   O      14.81900000  20.69200000  15.39000000  0.00000000
O        O   O      13.84500000  22.31500000  13.33700000  0.00000000
H        H   H      13.14300000  22.91600000  13.07900000  0.00000000
O        O   O      12.06600000  20.95000000  15.00200000  0.00000000
C        C   C      13.54200000  23.18700000  16.06800000  0.00000000
H        H   H      14.48200000  23.69500000  16.02400000  0.00000000
H        H   H      12.75900000  23.85800000  15.78000000  0.00000000
N        N   N      13.30400000  22.71500000  17.43900000  0.00000000
H        H   H      12.42600000  22.23900000  17.48000000  0.00000000
C        C   C      13.28200000  23.86300000  18.35600000  0.00000000
H        H   H      12.49900000  24.53400000  18.06900000  0.00000000
H        H   H      14.22200000  24.37200000  18.31300000  0.00000000
C        C   C      13.03300000  23.36800000  19.79300000  0.00000000
O        O   O      13.42900000  22.22600000  20.14300000  0.00000000
O        O   O      12.35200000  24.20600000  20.73000000  0.00000000
H        H   H      11.87300000  23.66000000  21.35800000  0.00000000
