data_Movie_nu1000_modified_1.1.2_100.000000_0.000000_allcomponents

_cell_length_a  39.97000000
_cell_length_b  40.00000000
_cell_length_c  33.16000000
_cell_angle_alpha  90.00000000
_cell_angle_beta   90.00000000
_cell_angle_gamma  120.00000000


_symmetry_space_group_name_Hall ' P 1'
_symmetry_space_group_name_H-M  'P 1'
_symmetry_Int_Tables_number     1

loop_
_atom_site_label
_atom_site_type_symbol
_atom_site_forcefield_label
_atom_site_Cartn_x
_atom_site_Cartn_y
_atom_site_Cartn_z
_atom_site_charge
P        P   P      12.62200000  21.84100000  16.38700000  0.00000000
O        O   O      12.05600000  21.03600000  17.78500000  0.00000000
O        O   O      14.32500000  21.98100000  16.45900000  0.00000000
H        H   H      14.64200000  22.43200000  15.67300000  0.00000000
O        O   O      12.18100000  20.94700000  14.99700000  0.00000000
C        C   C      11.88000000  23.50100000  16.30100000  0.00000000
H        H   H      12.15500000  24.06000000  17.17000000  0.00000000
H        H   H      12.23400000  24.00500000  15.42500000  0.00000000
N        N   N      10.41600000  23.38200000  16.23900000  0.00000000
H        H   H      10.15900000  22.85900000  15.42600000  0.00000000
C        C   C      9.81700000  24.72200000  16.16800000  0.00000000
H        H   H      10.17100000  25.22600000  15.29300000  0.00000000
H        H   H      10.09200000  25.28100000  17.03800000  0.00000000
C        C   C      8.28400000  24.59600000  16.10400000  0.00000000
O        O   O      7.70800000  23.62200000  16.65500000  0.00000000
O        O   O      7.51400000  25.58700000  15.41800000  0.00000000
H        H   H      6.72000000  25.18300000  15.06000000  0.00000000
