data_Movie_nu1000_modified_1.1.2_100.000000_0.000000_allcomponents

_cell_length_a  39.97000000
_cell_length_b  40.00000000
_cell_length_c  33.16000000
_cell_angle_alpha  90.00000000
_cell_angle_beta   90.00000000
_cell_angle_gamma  120.00000000


_symmetry_space_group_name_Hall ' P 1'
_symmetry_space_group_name_H-M  'P 1'
_symmetry_Int_Tables_number     1

loop_
_atom_site_label
_atom_site_type_symbol
_atom_site_forcefield_label
_atom_site_Cartn_x
_atom_site_Cartn_y
_atom_site_Cartn_z
_atom_site_charge
P        P   P      12.55400000  21.85600000  16.42200000  0.00000000
O        O   O      11.92900000  21.12200000  17.83500000  0.00000000
O        O   O      14.26000000  21.91800000  16.51800000  0.00000000
H        H   H      14.61000000  22.32900000  15.72500000  0.00000000
O        O   O      12.09200000  20.94100000  15.05300000  0.00000000
C        C   C      11.89200000  23.54600000  16.27300000  0.00000000
H        H   H      12.18100000  24.11800000  17.13000000  0.00000000
H        H   H      12.28400000  24.00500000  15.38900000  0.00000000
N        N   N      10.42600000  23.49300000  16.19100000  0.00000000
H        H   H      10.15700000  22.95800000  15.39000000  0.00000000
C        C   C      9.89300000  24.85700000  16.07000000  0.00000000
H        H   H      10.28300000  25.31700000  15.18600000  0.00000000
H        H   H      10.18100000  25.43000000  16.92700000  0.00000000
C        C   C      8.35600000  24.80200000  15.98400000  0.00000000
O        O   O      7.72700000  23.87400000  16.55400000  0.00000000
O        O   O      7.64400000  25.80600000  15.25500000  0.00000000
H        H   H      6.83800000  25.42900000  14.89600000  0.00000000
