data_Movie_nu1000_modified_1.1.2_100.000000_0.000000_allcomponents

_cell_length_a  39.97000000
_cell_length_b  40.00000000
_cell_length_c  33.16000000
_cell_angle_alpha  90.00000000
_cell_angle_beta   90.00000000
_cell_angle_gamma  120.00000000


_symmetry_space_group_name_Hall ' P 1'
_symmetry_space_group_name_H-M  'P 1'
_symmetry_Int_Tables_number     1

loop_
_atom_site_label
_atom_site_type_symbol
_atom_site_forcefield_label
_atom_site_Cartn_x
_atom_site_Cartn_y
_atom_site_Cartn_z
_atom_site_charge
P        P   P      12.80000000  21.68100000  16.18400000  0.00000000
O        O   O      12.15500000  20.95700000  17.59200000  0.00000000
O        O   O      14.50800000  21.63300000  16.24700000  0.00000000
H        H   H      14.86900000  22.03900000  15.45600000  0.00000000
O        O   O      12.25600000  20.82800000  14.80500000  0.00000000
C        C   C      12.24500000  23.41200000  16.08300000  0.00000000
H        H   H      12.58500000  23.94600000  16.94600000  0.00000000
H        H   H      12.64800000  23.86500000  15.20100000  0.00000000
N        N   N      10.77700000  23.45400000  16.02800000  0.00000000
H        H   H      10.45900000  22.95500000  15.22200000  0.00000000
C        C   C      10.32900000  24.85100000  15.94700000  0.00000000
H        H   H      10.73100000  25.30500000  15.06500000  0.00000000
H        H   H      10.66800000  25.38600000  16.81000000  0.00000000
C        C   C      8.79000000  24.89500000  15.89000000  0.00000000
O        O   O      8.11400000  23.99600000  16.45300000  0.00000000
O        O   O      8.13100000  25.95800000  15.19600000  0.00000000
H        H   H      7.29500000  25.64000000  14.84600000  0.00000000
