data_Movie_nu1000_modified_1.1.2_100.000000_0.000000_allcomponents

_cell_length_a  39.97000000
_cell_length_b  40.00000000
_cell_length_c  33.16000000
_cell_angle_alpha  90.00000000
_cell_angle_beta   90.00000000
_cell_angle_gamma  120.00000000


_symmetry_space_group_name_Hall ' P 1'
_symmetry_space_group_name_H-M  'P 1'
_symmetry_Int_Tables_number     1

loop_
_atom_site_label
_atom_site_type_symbol
_atom_site_forcefield_label
_atom_site_Cartn_x
_atom_site_Cartn_y
_atom_site_Cartn_z
_atom_site_charge
P        P   P      12.60600000  21.84100000  16.25300000  0.00000000
O        O   O      12.07000000  21.05200000  17.67200000  0.00000000
O        O   O      14.31000000  21.98400000  16.28800000  0.00000000
H        H   H      14.61000000  22.42600000  15.49100000  0.00000000
O        O   O      12.13800000  20.93000000  14.88300000  0.00000000
C        C   C      11.86100000  23.50000000  16.16200000  0.00000000
H        H   H      12.15400000  24.06900000  17.01900000  0.00000000
H        H   H      12.19600000  23.99300000  15.27400000  0.00000000
N        N   N      10.39700000  23.37800000  16.13200000  0.00000000
H        H   H      10.12300000  22.84500000  15.33100000  0.00000000
C        C   C      9.79500000  24.71600000  16.05800000  0.00000000
H        H   H      10.12900000  25.21000000  15.17000000  0.00000000
H        H   H      10.08700000  25.28700000  16.91600000  0.00000000
C        C   C      8.26000000  24.58800000  16.02700000  0.00000000
O        O   O      7.69700000  23.62000000  16.60100000  0.00000000
O        O   O      7.47500000  25.57000000  15.34500000  0.00000000
H        H   H      6.67400000  25.16100000  15.00900000  0.00000000
