data_Movie_nu1000_modified_1.1.2_100.000000_0.000000_allcomponents

_cell_length_a  39.97000000
_cell_length_b  40.00000000
_cell_length_c  33.16000000
_cell_angle_alpha  90.00000000
_cell_angle_beta   90.00000000
_cell_angle_gamma  120.00000000


_symmetry_space_group_name_Hall ' P 1'
_symmetry_space_group_name_H-M  'P 1'
_symmetry_Int_Tables_number     1

loop_
_atom_site_label
_atom_site_type_symbol
_atom_site_forcefield_label
_atom_site_Cartn_x
_atom_site_Cartn_y
_atom_site_Cartn_z
_atom_site_charge
P        P   P      12.30300000  21.92600000  16.78200000  0.00000000
O        O   O      11.55300000  21.30700000  18.18900000  0.00000000
O        O   O      14.00100000  21.85200000  16.96100000  0.00000000
H        H   H      14.42100000  22.19900000  16.17100000  0.00000000
O        O   O      11.83100000  20.99300000  15.42800000  0.00000000
C        C   C      11.79300000  23.65600000  16.53300000  0.00000000
H        H   H      12.08800000  24.23900000  17.38000000  0.00000000
H        H   H      12.26200000  24.04300000  15.65300000  0.00000000
N        N   N      10.33300000  23.71900000  16.37900000  0.00000000
H        H   H      10.05700000  23.17400000  15.58800000  0.00000000
C        C   C      9.92100000  25.11600000  16.17800000  0.00000000
H        H   H      10.39000000  25.50300000  15.29800000  0.00000000
H        H   H      10.21600000  25.70000000  17.02600000  0.00000000
C        C   C      8.39100000  25.18200000  16.01800000  0.00000000
O        O   O      7.66000000  24.33400000  16.59200000  0.00000000
O        O   O      7.80100000  26.20800000  15.21500000  0.00000000
H        H   H      6.98300000  25.88300000  14.83100000  0.00000000
