data_Movie_nu1000_modified_1.1.2_100.000000_0.000000_allcomponents

_cell_length_a  39.97000000
_cell_length_b  40.00000000
_cell_length_c  33.16000000
_cell_angle_alpha  90.00000000
_cell_angle_beta   90.00000000
_cell_angle_gamma  120.00000000


_symmetry_space_group_name_Hall ' P 1'
_symmetry_space_group_name_H-M  'P 1'
_symmetry_Int_Tables_number     1

loop_
_atom_site_label
_atom_site_type_symbol
_atom_site_forcefield_label
_atom_site_Cartn_x
_atom_site_Cartn_y
_atom_site_Cartn_z
_atom_site_charge
P        P   P      13.64400000  21.61500000  15.32600000  0.00000000
O        O   O      14.81600000  20.48600000  15.85100000  0.00000000
O        O   O      14.00600000  22.11400000  13.73100000  0.00000000
H        H   H      13.34700000  22.74700000  13.43600000  0.00000000
O        O   O      12.09700000  20.88600000  15.35800000  0.00000000
C        C   C      13.65600000  23.06100000  16.43100000  0.00000000
H        H   H      14.62300000  23.51700000  16.41100000  0.00000000
H        H   H      12.92200000  23.76800000  16.10200000  0.00000000
N        N   N      13.34400000  22.63300000  17.80200000  0.00000000
H        H   H      12.44000000  22.20700000  17.82000000  0.00000000
C        C   C      13.35300000  23.80000000  18.69500000  0.00000000
H        H   H      12.61900000  24.50700000  18.36600000  0.00000000
H        H   H      14.32100000  24.25700000  18.67500000  0.00000000
C        C   C      13.02700000  23.35100000  20.13100000  0.00000000
O        O   O      13.34700000  22.19700000  20.51800000  0.00000000
O        O   O      12.36000000  24.24600000  21.02600000  0.00000000
H        H   H      11.83000000  23.74100000  21.64700000  0.00000000
