data_Movie_nu1000_modified_1.1.2_100.000000_0.000000_allcomponents

_cell_length_a  39.97000000
_cell_length_b  40.00000000
_cell_length_c  33.16000000
_cell_angle_alpha  90.00000000
_cell_angle_beta   90.00000000
_cell_angle_gamma  120.00000000


_symmetry_space_group_name_Hall ' P 1'
_symmetry_space_group_name_H-M  'P 1'
_symmetry_Int_Tables_number     1

loop_
_atom_site_label
_atom_site_type_symbol
_atom_site_forcefield_label
_atom_site_Cartn_x
_atom_site_Cartn_y
_atom_site_Cartn_z
_atom_site_charge
P        P   P      12.60500000  21.87000000  16.46300000  0.00000000
O        O   O      11.97700000  21.10900000  17.86000000  0.00000000
O        O   O      14.30800000  21.96200000  16.58000000  0.00000000
H        H   H      14.66000000  22.38900000  15.79600000  0.00000000
O        O   O      12.17700000  20.96200000  15.07800000  0.00000000
C        C   C      11.91500000  23.54900000  16.32500000  0.00000000
H        H   H      12.18300000  24.11700000  17.19100000  0.00000000
H        H   H      12.30800000  24.02500000  15.45000000  0.00000000
N        N   N      10.45100000  23.47000000  16.22400000  0.00000000
H        H   H      10.20100000  22.93900000  15.41400000  0.00000000
C        C   C      9.89400000  24.82500000  16.11100000  0.00000000
H        H   H      10.28600000  25.30200000  15.23700000  0.00000000
H        H   H      10.16100000  25.39400000  16.97800000  0.00000000
C        C   C      8.35900000  24.74300000  16.00600000  0.00000000
O        O   O      7.74000000  23.79700000  16.55900000  0.00000000
O        O   O      7.63800000  25.74100000  15.28000000  0.00000000
H        H   H      6.84200000  25.35400000  14.90800000  0.00000000
