data_Movie_nu1000_modified_1.1.2_100.000000_0.000000_allcomponents

_cell_length_a  39.97000000
_cell_length_b  40.00000000
_cell_length_c  33.16000000
_cell_angle_alpha  90.00000000
_cell_angle_beta   90.00000000
_cell_angle_gamma  120.00000000


_symmetry_space_group_name_Hall ' P 1'
_symmetry_space_group_name_H-M  'P 1'
_symmetry_Int_Tables_number     1

loop_
_atom_site_label
_atom_site_type_symbol
_atom_site_forcefield_label
_atom_site_Cartn_x
_atom_site_Cartn_y
_atom_site_Cartn_z
_atom_site_charge
P        P   P      12.47900000  21.88200000  16.66300000  0.00000000
O        O   O      11.75700000  21.18800000  18.04900000  0.00000000
O        O   O      14.18000000  21.85800000  16.83200000  0.00000000
H        H   H      14.58500000  22.24700000  16.05400000  0.00000000
O        O   O      12.03100000  20.98500000  15.27700000  0.00000000
C        C   C      11.91200000  23.60300000  16.48100000  0.00000000
H        H   H      12.19200000  24.16400000  17.34700000  0.00000000
H        H   H      12.36400000  24.03700000  15.61300000  0.00000000
N        N   N      10.45000000  23.62400000  16.33400000  0.00000000
H        H   H      10.18800000  23.09900000  15.52500000  0.00000000
C        C   C      9.99200000  25.01300000  16.18700000  0.00000000
H        H   H      10.44300000  25.44700000  15.31900000  0.00000000
H        H   H      10.27200000  25.57500000  17.05400000  0.00000000
C        C   C      8.46000000  25.03500000  16.03400000  0.00000000
O        O   O      7.76000000  24.14300000  16.58000000  0.00000000
O        O   O      7.83200000  26.07000000  15.27200000  0.00000000
H        H   H      7.02400000  25.73300000  14.88000000  0.00000000
