data_Movie_nu1000_modified_1.1.2_100.000000_0.000000_allcomponents

_cell_length_a  39.97000000
_cell_length_b  40.00000000
_cell_length_c  33.16000000
_cell_angle_alpha  90.00000000
_cell_angle_beta   90.00000000
_cell_angle_gamma  120.00000000


_symmetry_space_group_name_Hall ' P 1'
_symmetry_space_group_name_H-M  'P 1'
_symmetry_Int_Tables_number     1

loop_
_atom_site_label
_atom_site_type_symbol
_atom_site_forcefield_label
_atom_site_Cartn_x
_atom_site_Cartn_y
_atom_site_Cartn_z
_atom_site_charge
P        P   P      12.32100000  21.98200000  16.55600000  0.00000000
O        O   O      11.73800000  21.20200000  17.96200000  0.00000000
O        O   O      14.02100000  22.13300000  16.65100000  0.00000000
H        H   H      14.34800000  22.57100000  15.86200000  0.00000000
O        O   O      11.90600000  21.05800000  15.17800000  0.00000000
C        C   C      11.57100000  23.63700000  16.42500000  0.00000000
H        H   H      11.83100000  24.21400000  17.28700000  0.00000000
H        H   H      11.93700000  24.12500000  15.54500000  0.00000000
N        N   N      10.11000000  23.50700000  16.34300000  0.00000000
H        H   H      9.86800000  22.96700000  15.53800000  0.00000000
C        C   C      9.50500000  24.84200000  16.23700000  0.00000000
H        H   H      9.86900000  25.33000000  15.35700000  0.00000000
H        H   H      9.76300000  25.42100000  17.09900000  0.00000000
C        C   C      7.97300000  24.70700000  16.15200000  0.00000000
O        O   O      7.39400000  23.74100000  16.71400000  0.00000000
O        O   O      7.20800000  25.67900000  15.43400000  0.00000000
H        H   H      6.42200000  25.26300000  15.07300000  0.00000000
