data_Movie_nu1000_modified_1.1.2_100.000000_0.000000_allcomponents

_cell_length_a  39.97000000
_cell_length_b  40.00000000
_cell_length_c  33.16000000
_cell_angle_alpha  90.00000000
_cell_angle_beta   90.00000000
_cell_angle_gamma  120.00000000


_symmetry_space_group_name_Hall ' P 1'
_symmetry_space_group_name_H-M  'P 1'
_symmetry_Int_Tables_number     1

loop_
_atom_site_label
_atom_site_type_symbol
_atom_site_forcefield_label
_atom_site_Cartn_x
_atom_site_Cartn_y
_atom_site_Cartn_z
_atom_site_charge
P        P   P      13.42400000  21.77000000  15.15600000  0.00000000
O        O   O      14.58700000  20.63800000  15.69200000  0.00000000
O        O   O      13.82000000  22.29200000  13.57700000  0.00000000
H        H   H      13.16600000  22.92700000  13.27600000  0.00000000
O        O   O      11.87800000  21.03700000  15.14300000  0.00000000
C        C   C      13.40600000  23.20200000  16.28100000  0.00000000
H        H   H      14.37300000  23.66000000  16.28900000  0.00000000
H        H   H      12.67800000  23.91000000  15.94600000  0.00000000
N        N   N      13.06500000  22.75400000  17.63900000  0.00000000
H        H   H      12.16200000  22.32500000  17.63100000  0.00000000
C        C   C      13.05100000  23.90900000  18.54700000  0.00000000
H        H   H      12.32200000  24.61800000  18.21200000  0.00000000
H        H   H      14.01800000  24.36800000  18.55600000  0.00000000
C        C   C      12.69400000  23.43900000  19.97000000  0.00000000
O        O   O      13.00900000  22.28100000  20.34800000  0.00000000
O        O   O      12.00500000  24.32000000  20.86100000  0.00000000
H        H   H      11.46200000  23.80500000  21.46300000  0.00000000
