data_Movie_nu1000_modified_1.1.2_100.000000_0.000000_allcomponents

_cell_length_a  39.97000000
_cell_length_b  40.00000000
_cell_length_c  33.16000000
_cell_angle_alpha  90.00000000
_cell_angle_beta   90.00000000
_cell_angle_gamma  120.00000000


_symmetry_space_group_name_Hall ' P 1'
_symmetry_space_group_name_H-M  'P 1'
_symmetry_Int_Tables_number     1

loop_
_atom_site_label
_atom_site_type_symbol
_atom_site_forcefield_label
_atom_site_Cartn_x
_atom_site_Cartn_y
_atom_site_Cartn_z
_atom_site_charge
P        P   P      12.65600000  21.79600000  16.47500000  0.00000000
O        O   O      11.88800000  21.16400000  17.86700000  0.00000000
O        O   O      14.35200000  21.72400000  16.67700000  0.00000000
H        H   H      14.78200000  22.07800000  15.89500000  0.00000000
O        O   O      12.20400000  20.87300000  15.10800000  0.00000000
C        C   C      12.14600000  23.52700000  16.23400000  0.00000000
H        H   H      12.42800000  24.10300000  17.09000000  0.00000000
H        H   H      12.62600000  23.92200000  15.36300000  0.00000000
N        N   N      10.68800000  23.58900000  16.06100000  0.00000000
H        H   H      10.42400000  23.04900000  15.26200000  0.00000000
C        C   C      10.27600000  24.98600000  15.86600000  0.00000000
H        H   H      10.75600000  25.38100000  14.99500000  0.00000000
H        H   H      10.55800000  25.56300000  16.72200000  0.00000000
C        C   C      8.74800000  25.05100000  15.68500000  0.00000000
O        O   O      8.01100000  24.19600000  16.24200000  0.00000000
O        O   O      8.16700000  26.08200000  14.88300000  0.00000000
H        H   H      7.35500000  25.75900000  14.48500000  0.00000000
