data_Movie_nu1000_modified_1.1.2_100.000000_0.000000_allcomponents

_cell_length_a  39.97000000
_cell_length_b  40.00000000
_cell_length_c  33.16000000
_cell_angle_alpha  90.00000000
_cell_angle_beta   90.00000000
_cell_angle_gamma  120.00000000


_symmetry_space_group_name_Hall ' P 1'
_symmetry_space_group_name_H-M  'P 1'
_symmetry_Int_Tables_number     1

loop_
_atom_site_label
_atom_site_type_symbol
_atom_site_forcefield_label
_atom_site_Cartn_x
_atom_site_Cartn_y
_atom_site_Cartn_z
_atom_site_charge
P        P   P      13.54500000  21.84500000  14.97300000  0.00000000
O        O   O      14.86800000  20.82400000  15.33600000  0.00000000
O        O   O      13.77600000  22.55400000  13.43400000  0.00000000
H        H   H      13.03300000  23.12600000  13.23100000  0.00000000
O        O   O      12.10200000  20.92700000  14.96700000  0.00000000
C        C   C      13.42600000  23.15500000  16.23200000  0.00000000
H        H   H      14.32800000  23.72900000  16.23500000  0.00000000
H        H   H      12.59800000  23.79400000  16.00400000  0.00000000
N        N   N      13.22700000  22.54700000  17.55500000  0.00000000
H        H   H      12.38300000  22.01000000  17.55100000  0.00000000
C        C   C      13.13000000  23.60400000  18.57100000  0.00000000
H        H   H      12.30200000  24.24200000  18.34400000  0.00000000
H        H   H      14.03300000  24.17800000  18.57500000  0.00000000
C        C   C      12.92200000  22.96600000  19.95700000  0.00000000
O        O   O      13.39700000  21.82700000  20.20400000  0.00000000
O        O   O      12.18800000  23.66800000  20.96400000  0.00000000
H        H   H      11.75100000  23.03700000  21.54000000  0.00000000
