data_Movie_nu1000_modified_1.1.2_100.000000_0.000000_allcomponents

_cell_length_a  39.97000000
_cell_length_b  40.00000000
_cell_length_c  33.16000000
_cell_angle_alpha  90.00000000
_cell_angle_beta   90.00000000
_cell_angle_gamma  120.00000000


_symmetry_space_group_name_Hall ' P 1'
_symmetry_space_group_name_H-M  'P 1'
_symmetry_Int_Tables_number     1

loop_
_atom_site_label
_atom_site_type_symbol
_atom_site_forcefield_label
_atom_site_Cartn_x
_atom_site_Cartn_y
_atom_site_Cartn_z
_atom_site_charge
P        P   P      12.41900000  21.96800000  16.65300000  0.00000000
O        O   O      11.79600000  21.23800000  18.06800000  0.00000000
O        O   O      14.12000000  22.09100000  16.77500000  0.00000000
H        H   H      14.46900000  22.49900000  15.98000000  0.00000000
O        O   O      12.01300000  21.01200000  15.29300000  0.00000000
C        C   C      11.70300000  23.63000000  16.46100000  0.00000000
H        H   H      11.95700000  24.22700000  17.31100000  0.00000000
H        H   H      12.09300000  24.08700000  15.57500000  0.00000000
N        N   N      10.24100000  23.52500000  16.35600000  0.00000000
H        H   H      10.00400000  22.96600000  15.56100000  0.00000000
C        C   C      9.66300000  24.86700000  16.20100000  0.00000000
H        H   H      10.05200000  25.32400000  15.31500000  0.00000000
H        H   H      9.91600000  25.46500000  17.05200000  0.00000000
C        C   C      8.13100000  24.75700000  16.09100000  0.00000000
O        O   O      7.52400000  23.81800000  16.66800000  0.00000000
O        O   O      7.39700000  25.72200000  15.33200000  0.00000000
H        H   H      6.61000000  25.31100000  14.96700000  0.00000000
