data_Movie_nu1000_modified_1.1.2_100.000000_0.000000_allcomponents

_cell_length_a  39.97000000
_cell_length_b  40.00000000
_cell_length_c  33.16000000
_cell_angle_alpha  90.00000000
_cell_angle_beta   90.00000000
_cell_angle_gamma  120.00000000


_symmetry_space_group_name_Hall ' P 1'
_symmetry_space_group_name_H-M  'P 1'
_symmetry_Int_Tables_number     1

loop_
_atom_site_label
_atom_site_type_symbol
_atom_site_forcefield_label
_atom_site_Cartn_x
_atom_site_Cartn_y
_atom_site_Cartn_z
_atom_site_charge
P        P   P      12.50000000  21.84800000  16.52100000  0.00000000
O        O   O      11.72100000  21.21100000  17.90400000  0.00000000
O        O   O      14.19400000  21.70500000  16.70400000  0.00000000
H        H   H      14.63000000  22.06200000  15.92800000  0.00000000
O        O   O      12.00100000  20.97800000  15.13500000  0.00000000
C        C   C      12.05600000  23.60300000  16.32900000  0.00000000
H        H   H      12.36800000  24.14600000  17.19600000  0.00000000
H        H   H      12.54300000  24.00100000  15.46300000  0.00000000
N        N   N      10.60000000  23.72600000  16.17100000  0.00000000
H        H   H      10.30800000  23.21700000  15.36100000  0.00000000
C        C   C      10.24100000  25.14200000  16.01500000  0.00000000
H        H   H      10.72800000  25.54100000  15.15000000  0.00000000
H        H   H      10.55300000  25.68600000  16.88300000  0.00000000
C        C   C      8.71500000  25.27100000  15.85100000  0.00000000
O        O   O      7.95100000  24.43100000  16.39300000  0.00000000
O        O   O      8.16700000  26.34400000  15.08100000  0.00000000
H        H   H      7.34000000  26.06300000  14.68300000  0.00000000
