data_Movie_nu1000_modified_1.1.2_100.000000_0.000000_allcomponents

_cell_length_a  39.97000000
_cell_length_b  40.00000000
_cell_length_c  33.16000000
_cell_angle_alpha  90.00000000
_cell_angle_beta   90.00000000
_cell_angle_gamma  120.00000000


_symmetry_space_group_name_Hall ' P 1'
_symmetry_space_group_name_H-M  'P 1'
_symmetry_Int_Tables_number     1

loop_
_atom_site_label
_atom_site_type_symbol
_atom_site_forcefield_label
_atom_site_Cartn_x
_atom_site_Cartn_y
_atom_site_Cartn_z
_atom_site_charge
P        P   P      13.43900000  21.79200000  15.30300000  0.00000000
O        O   O      14.67800000  20.72800000  15.81000000  0.00000000
O        O   O      13.77400000  22.34500000  13.72100000  0.00000000
H        H   H      13.07800000  22.94200000  13.43700000  0.00000000
O        O   O      11.94000000  20.96700000  15.31400000  0.00000000
C        C   C      13.35700000  23.21300000  16.43900000  0.00000000
H        H   H      14.29400000  23.72800000  16.43200000  0.00000000
H        H   H      12.58100000  23.87800000  16.12100000  0.00000000
N        N   N      13.06900000  22.73700000  17.79900000  0.00000000
H        H   H      12.19300000  22.25500000  17.80500000  0.00000000
C        C   C      13.00200000  23.88400000  18.71500000  0.00000000
H        H   H      12.22600000  24.55000000  18.39900000  0.00000000
H        H   H      13.94000000  24.40000000  18.71000000  0.00000000
C        C   C      12.70100000  23.38600000  20.14100000  0.00000000
O        O   O      13.09100000  22.24600000  20.50500000  0.00000000
O        O   O      11.97700000  24.21800000  21.05100000  0.00000000
H        H   H      11.47700000  23.66800000  21.65900000  0.00000000
