data_Movie_nu1000_modified_1.1.2_100.000000_0.000000_allcomponents

_cell_length_a  39.97000000
_cell_length_b  40.00000000
_cell_length_c  33.16000000
_cell_angle_alpha  90.00000000
_cell_angle_beta   90.00000000
_cell_angle_gamma  120.00000000


_symmetry_space_group_name_Hall ' P 1'
_symmetry_space_group_name_H-M  'P 1'
_symmetry_Int_Tables_number     1

loop_
_atom_site_label
_atom_site_type_symbol
_atom_site_forcefield_label
_atom_site_Cartn_x
_atom_site_Cartn_y
_atom_site_Cartn_z
_atom_site_charge
P        P   P      12.80600000  21.77300000  16.38500000  0.00000000
O        O   O      12.27900000  20.95100000  17.78900000  0.00000000
O        O   O      14.50900000  21.91800000  16.41300000  0.00000000
H        H   H      14.80400000  22.37800000  15.62500000  0.00000000
O        O   O      12.33100000  20.89200000  14.99700000  0.00000000
C        C   C      12.05700000  23.43200000  16.33600000  0.00000000
H        H   H      12.35400000  23.98200000  17.20300000  0.00000000
H        H   H      12.38700000  23.94600000  15.45700000  0.00000000
N        N   N      10.59300000  23.30800000  16.31100000  0.00000000
H        H   H      10.31600000  22.79300000  15.50000000  0.00000000
C        C   C      9.98800000  24.64700000  16.27100000  0.00000000
H        H   H      10.31700000  25.16100000  15.39200000  0.00000000
H        H   H      10.28400000  25.19800000  17.13900000  0.00000000
C        C   C      8.45400000  24.51700000  16.24600000  0.00000000
O        O   O      7.89600000  23.53500000  16.80100000  0.00000000
O        O   O      7.66300000  25.51200000  15.59100000  0.00000000
H        H   H      6.86100000  25.11000000  15.25000000  0.00000000
