data_Movie_nu1000_modified_1.1.2_100.000000_0.000000_allcomponents

_cell_length_a  39.97000000
_cell_length_b  40.00000000
_cell_length_c  33.16000000
_cell_angle_alpha  90.00000000
_cell_angle_beta   90.00000000
_cell_angle_gamma  120.00000000


_symmetry_space_group_name_Hall ' P 1'
_symmetry_space_group_name_H-M  'P 1'
_symmetry_Int_Tables_number     1

loop_
_atom_site_label
_atom_site_type_symbol
_atom_site_forcefield_label
_atom_site_Cartn_x
_atom_site_Cartn_y
_atom_site_Cartn_z
_atom_site_charge
P        P   P      12.50000000  21.90400000  16.42300000  0.00000000
O        O   O      11.66400000  21.27500000  17.77600000  0.00000000
O        O   O      14.18500000  21.76400000  16.67800000  0.00000000
H        H   H      14.65300000  22.11700000  15.91900000  0.00000000
O        O   O      12.06000000  21.02600000  15.02200000  0.00000000
C        C   C      12.06300000  23.65800000  16.20200000  0.00000000
H        H   H      12.33800000  24.20600000  17.07800000  0.00000000
H        H   H      12.58700000  24.05200000  15.35600000  0.00000000
N        N   N      10.61500000  23.77800000  15.98300000  0.00000000
H        H   H      10.35800000  23.26500000  15.16400000  0.00000000
C        C   C      10.26200000  25.19400000  15.80400000  0.00000000
H        H   H      10.78500000  25.58800000  14.95800000  0.00000000
H        H   H      10.53700000  25.74300000  16.68100000  0.00000000
C        C   C      8.74500000  25.32000000  15.57500000  0.00000000
O        O   O      7.95800000  24.48300000  16.09000000  0.00000000
O        O   O      8.22900000  26.38900000  14.77600000  0.00000000
H        H   H      7.41900000  26.10400000  14.34600000  0.00000000
