data_Movie_nu1000_modified_1.1.2_100.000000_0.000000_allcomponents

_cell_length_a  39.97000000
_cell_length_b  40.00000000
_cell_length_c  33.16000000
_cell_angle_alpha  90.00000000
_cell_angle_beta   90.00000000
_cell_angle_gamma  120.00000000


_symmetry_space_group_name_Hall ' P 1'
_symmetry_space_group_name_H-M  'P 1'
_symmetry_Int_Tables_number     1

loop_
_atom_site_label
_atom_site_type_symbol
_atom_site_forcefield_label
_atom_site_Cartn_x
_atom_site_Cartn_y
_atom_site_Cartn_z
_atom_site_charge
P        P   P      12.62000000  21.84100000  16.38800000  0.00000000
O        O   O      12.08700000  21.03400000  17.79800000  0.00000000
O        O   O      14.32200000  22.00400000  16.43300000  0.00000000
H        H   H      14.62000000  22.45700000  15.64100000  0.00000000
O        O   O      12.17000000  20.93600000  15.00900000  0.00000000
C        C   C      11.85400000  23.49100000  16.30800000  0.00000000
H        H   H      12.13600000  24.05700000  17.17000000  0.00000000
H        H   H      12.18800000  23.99600000  15.42500000  0.00000000
N        N   N      10.39200000  23.35100000  16.26900000  0.00000000
H        H   H      10.12900000  22.82200000  15.46300000  0.00000000
C        C   C      9.77400000  24.68300000  16.20400000  0.00000000
H        H   H      10.10700000  25.18800000  15.32100000  0.00000000
H        H   H      10.05500000  25.24900000  17.06700000  0.00000000
C        C   C      8.24100000  24.53600000  16.16400000  0.00000000
O        O   O      7.68800000  23.55600000  16.72700000  0.00000000
O        O   O      7.44700000  25.51300000  15.48600000  0.00000000
H        H   H      6.65300000  25.09700000  15.14200000  0.00000000
