data_Movie_nu1000_modified_1.1.2_100.000000_0.000000_allcomponents

_cell_length_a  39.97000000
_cell_length_b  40.00000000
_cell_length_c  33.16000000
_cell_angle_alpha  90.00000000
_cell_angle_beta   90.00000000
_cell_angle_gamma  120.00000000


_symmetry_space_group_name_Hall ' P 1'
_symmetry_space_group_name_H-M  'P 1'
_symmetry_Int_Tables_number     1

loop_
_atom_site_label
_atom_site_type_symbol
_atom_site_forcefield_label
_atom_site_Cartn_x
_atom_site_Cartn_y
_atom_site_Cartn_z
_atom_site_charge
P        P   P      13.75200000  21.67900000  15.15000000  0.00000000
O        O   O      14.94900000  20.55000000  15.61400000  0.00000000
O        O   O      14.12000000  22.29700000  13.59900000  0.00000000
H        H   H      13.44800000  22.93000000  13.33900000  0.00000000
O        O   O      12.22600000  20.90700000  15.10900000  0.00000000
C        C   C      13.70900000  23.04500000  16.35300000  0.00000000
H        H   H      14.66300000  23.52700000  16.37800000  0.00000000
H        H   H      12.95900000  23.75200000  16.06200000  0.00000000
N        N   N      13.39200000  22.51400000  17.68600000  0.00000000
H        H   H      12.50000000  22.06300000  17.66200000  0.00000000
C        C   C      13.35600000  23.61700000  18.65700000  0.00000000
H        H   H      12.60700000  24.32400000  18.36700000  0.00000000
H        H   H      14.31100000  24.10000000  18.68300000  0.00000000
C        C   C      13.02500000  23.06100000  20.05400000  0.00000000
O        O   O      13.37300000  21.89200000  20.36500000  0.00000000
O        O   O      12.32200000  23.87300000  20.99800000  0.00000000
H        H   H      11.79800000  23.31200000  21.57500000  0.00000000
