data_Movie_nu1000_modified_1.1.2_100.000000_0.000000_allcomponents

_cell_length_a  39.97000000
_cell_length_b  40.00000000
_cell_length_c  33.16000000
_cell_angle_alpha  90.00000000
_cell_angle_beta   90.00000000
_cell_angle_gamma  120.00000000


_symmetry_space_group_name_Hall ' P 1'
_symmetry_space_group_name_H-M  'P 1'
_symmetry_Int_Tables_number     1

loop_
_atom_site_label
_atom_site_type_symbol
_atom_site_forcefield_label
_atom_site_Cartn_x
_atom_site_Cartn_y
_atom_site_Cartn_z
_atom_site_charge
P        P   P      12.61200000  21.84300000  16.58700000  0.00000000
O        O   O      12.02700000  21.07100000  17.99600000  0.00000000
O        O   O      14.31400000  21.98500000  16.67900000  0.00000000
H        H   H      14.64100000  22.41800000  15.88800000  0.00000000
O        O   O      12.19000000  20.91700000  15.21300000  0.00000000
C        C   C      11.87200000  23.50100000  16.45200000  0.00000000
H        H   H      12.13600000  24.08000000  17.31200000  0.00000000
H        H   H      12.23800000  23.98400000  15.57000000  0.00000000
N        N   N      10.40900000  23.38000000  16.37300000  0.00000000
H        H   H      10.16300000  22.83800000  15.56900000  0.00000000
C        C   C      9.81200000  24.71800000  16.26300000  0.00000000
H        H   H      10.17700000  25.20100000  15.38200000  0.00000000
H        H   H      10.07500000  25.29800000  17.12400000  0.00000000
C        C   C      8.27900000  24.59100000  16.18100000  0.00000000
O        O   O      7.69600000  23.63000000  16.74600000  0.00000000
O        O   O      7.51900000  25.56500000  15.46100000  0.00000000
H        H   H      6.73000000  25.15300000  15.10200000  0.00000000
