data_Movie_nu1000_modified_1.1.2_100.000000_0.000000_allcomponents

_cell_length_a  39.97000000
_cell_length_b  40.00000000
_cell_length_c  33.16000000
_cell_angle_alpha  90.00000000
_cell_angle_beta   90.00000000
_cell_angle_gamma  120.00000000


_symmetry_space_group_name_Hall ' P 1'
_symmetry_space_group_name_H-M  'P 1'
_symmetry_Int_Tables_number     1

loop_
_atom_site_label
_atom_site_type_symbol
_atom_site_forcefield_label
_atom_site_Cartn_x
_atom_site_Cartn_y
_atom_site_Cartn_z
_atom_site_charge
P        P   P      12.65200000  21.79600000  16.57400000  0.00000000
O        O   O      11.90300000  21.13200000  17.96100000  0.00000000
O        O   O      14.35000000  21.75100000  16.76500000  0.00000000
H        H   H      14.76900000  22.12300000  15.98600000  0.00000000
O        O   O      12.20800000  20.88400000  15.19700000  0.00000000
C        C   C      12.11000000  23.52100000  16.36000000  0.00000000
H        H   H      12.38700000  24.09000000  17.22200000  0.00000000
H        H   H      12.57900000  23.93600000  15.49200000  0.00000000
N        N   N      10.65000000  23.56000000  16.19600000  0.00000000
H        H   H      10.39200000  23.02600000  15.39000000  0.00000000
C        C   C      10.21400000  24.95200000  16.02200000  0.00000000
H        H   H      10.68100000  25.36700000  15.15400000  0.00000000
H        H   H      10.49000000  25.52300000  16.88400000  0.00000000
C        C   C      8.68400000  24.99300000  15.85000000  0.00000000
O        O   O      7.96500000  24.11800000  16.40000000  0.00000000
O        O   O      8.08000000  26.02500000  15.06500000  0.00000000
H        H   H      7.27100000  25.69200000  14.66800000  0.00000000
