data_Movie_nu1000_modified_1.1.2_100.000000_0.000000_allcomponents

_cell_length_a  39.97000000
_cell_length_b  40.00000000
_cell_length_c  33.16000000
_cell_angle_alpha  90.00000000
_cell_angle_beta   90.00000000
_cell_angle_gamma  120.00000000


_symmetry_space_group_name_Hall ' P 1'
_symmetry_space_group_name_H-M  'P 1'
_symmetry_Int_Tables_number     1

loop_
_atom_site_label
_atom_site_type_symbol
_atom_site_forcefield_label
_atom_site_Cartn_x
_atom_site_Cartn_y
_atom_site_Cartn_z
_atom_site_charge
P        P   P      12.49500000  21.89800000  16.66200000  0.00000000
O        O   O      11.95200000  21.15600000  18.10400000  0.00000000
O        O   O      14.20300000  21.98300000  16.67200000  0.00000000
H        H   H      14.50700000  22.39900000  15.86200000  0.00000000
O        O   O      11.97700000  20.97700000  15.31700000  0.00000000
C        C   C      11.80500000  23.57900000  16.54700000  0.00000000
H        H   H      12.12900000  24.15500000  17.38800000  0.00000000
H        H   H      12.14500000  24.04300000  15.64500000  0.00000000
N        N   N      10.33700000  23.50700000  16.53800000  0.00000000
H        H   H      10.03500000  22.96800000  15.75200000  0.00000000
C        C   C      9.78000000  24.86400000  16.44500000  0.00000000
H        H   H      10.12000000  25.32800000  15.54300000  0.00000000
H        H   H      10.10300000  25.44000000  17.28700000  0.00000000
C        C   C      8.24200000  24.78800000  16.43700000  0.00000000
O        O   O      7.65400000  23.85100000  17.03800000  0.00000000
O        O   O      7.48100000  25.78200000  15.74500000  0.00000000
H        H   H      6.66300000  25.39400000  15.42700000  0.00000000
