data_Movie_nu1000_modified_1.1.2_100.000000_0.000000_allcomponents

_cell_length_a  39.97000000
_cell_length_b  40.00000000
_cell_length_c  33.16000000
_cell_angle_alpha  90.00000000
_cell_angle_beta   90.00000000
_cell_angle_gamma  120.00000000


_symmetry_space_group_name_Hall ' P 1'
_symmetry_space_group_name_H-M  'P 1'
_symmetry_Int_Tables_number     1

loop_
_atom_site_label
_atom_site_type_symbol
_atom_site_forcefield_label
_atom_site_Cartn_x
_atom_site_Cartn_y
_atom_site_Cartn_z
_atom_site_charge
P        P   P      12.58900000  21.87500000  16.33900000  0.00000000
O        O   O      11.99000000  21.07800000  17.72900000  0.00000000
O        O   O      14.29300000  21.98300000  16.43400000  0.00000000
H        H   H      14.62900000  22.42900000  15.65300000  0.00000000
O        O   O      12.15000000  20.99000000  14.94200000  0.00000000
C        C   C      11.87900000  23.54900000  16.24500000  0.00000000
H        H   H      12.15400000  24.10100000  17.11900000  0.00000000
H        H   H      12.25500000  24.04700000  15.37600000  0.00000000
N        N   N      10.41500000  23.45600000  16.16400000  0.00000000
H        H   H      10.15900000  22.93900000  15.34700000  0.00000000
C        C   C      9.84200000  24.80700000  16.08800000  0.00000000
H        H   H      10.21600000  25.30600000  15.21800000  0.00000000
H        H   H      10.11600000  25.36000000  16.96200000  0.00000000
C        C   C      8.30700000  24.71000000  16.00300000  0.00000000
O        O   O      7.70600000  23.74600000  16.54400000  0.00000000
O        O   O      7.56500000  25.71600000  15.30800000  0.00000000
H        H   H      6.76800000  25.32700000  14.93900000  0.00000000
