data_Movie_nu1000_modified_1.1.2_100.000000_0.000000_allcomponents

_cell_length_a  39.97000000
_cell_length_b  40.00000000
_cell_length_c  33.16000000
_cell_angle_alpha  90.00000000
_cell_angle_beta   90.00000000
_cell_angle_gamma  120.00000000


_symmetry_space_group_name_Hall ' P 1'
_symmetry_space_group_name_H-M  'P 1'
_symmetry_Int_Tables_number     1

loop_
_atom_site_label
_atom_site_type_symbol
_atom_site_forcefield_label
_atom_site_Cartn_x
_atom_site_Cartn_y
_atom_site_Cartn_z
_atom_site_charge
P        P   P      13.72800000  21.67900000  14.92500000  0.00000000
O        O   O      14.96200000  20.56700000  15.33500000  0.00000000
O        O   O      13.99000000  22.26300000  13.33900000  0.00000000
H        H   H      13.29800000  22.88600000  13.10900000  0.00000000
O        O   O      12.20900000  20.89800000  15.00100000  0.00000000
C        C   C      13.75400000  23.07300000  16.09600000  0.00000000
H        H   H      14.70400000  23.56100000  16.04800000  0.00000000
H        H   H      12.98200000  23.76800000  15.83900000  0.00000000
N        N   N      13.52900000  22.57200000  17.45900000  0.00000000
H        H   H      12.64000000  22.11500000  17.50400000  0.00000000
C        C   C      13.54900000  23.69700000  18.40400000  0.00000000
H        H   H      12.77700000  24.39200000  18.14800000  0.00000000
H        H   H      14.50000000  24.18500000  18.35700000  0.00000000
C        C   C      13.31400000  23.17100000  19.83300000  0.00000000
O        O   O      13.68900000  22.01200000  20.14700000  0.00000000
O        O   O      12.66700000  24.00100000  20.80200000  0.00000000
H        H   H      12.18700000  23.45100000  21.42500000  0.00000000
