data_Movie_nu1000_modified_1.1.2_100.000000_0.000000_allcomponents

_cell_length_a  39.97000000
_cell_length_b  40.00000000
_cell_length_c  33.16000000
_cell_angle_alpha  90.00000000
_cell_angle_beta   90.00000000
_cell_angle_gamma  120.00000000


_symmetry_space_group_name_Hall ' P 1'
_symmetry_space_group_name_H-M  'P 1'
_symmetry_Int_Tables_number     1

loop_
_atom_site_label
_atom_site_type_symbol
_atom_site_forcefield_label
_atom_site_Cartn_x
_atom_site_Cartn_y
_atom_site_Cartn_z
_atom_site_charge
P        P   P      12.48900000  21.95000000  16.66400000  0.00000000
O        O   O      11.86700000  21.24300000  18.09100000  0.00000000
O        O   O      14.19200000  22.04800000  16.77000000  0.00000000
H        H   H      14.54000000  22.44400000  15.96800000  0.00000000
O        O   O      12.05500000  20.99000000  15.31700000  0.00000000
C        C   C      11.79600000  23.62300000  16.46500000  0.00000000
H        H   H      12.06800000  24.22300000  17.30700000  0.00000000
H        H   H      12.18500000  24.06500000  15.57100000  0.00000000
N        N   N      10.33200000  23.53900000  16.37400000  0.00000000
H        H   H      10.07900000  22.97800000  15.58600000  0.00000000
C        C   C      9.77300000  24.88900000  16.21200000  0.00000000
H        H   H      10.16200000  25.33200000  15.31900000  0.00000000
H        H   H      10.04400000  25.49000000  17.05500000  0.00000000
C        C   C      8.23900000  24.80200000  16.11700000  0.00000000
O        O   O      7.62300000  23.87700000  16.70800000  0.00000000
O        O   O      7.51400000  25.77200000  15.35600000  0.00000000
H        H   H      6.71700000  25.37000000  15.00300000  0.00000000
