data_Movie_nu1000_modified_1.1.2_100.000000_0.000000_allcomponents

_cell_length_a  39.97000000
_cell_length_b  40.00000000
_cell_length_c  33.16000000
_cell_angle_alpha  90.00000000
_cell_angle_beta   90.00000000
_cell_angle_gamma  120.00000000


_symmetry_space_group_name_Hall ' P 1'
_symmetry_space_group_name_H-M  'P 1'
_symmetry_Int_Tables_number     1

loop_
_atom_site_label
_atom_site_type_symbol
_atom_site_forcefield_label
_atom_site_Cartn_x
_atom_site_Cartn_y
_atom_site_Cartn_z
_atom_site_charge
P        P   P      13.76400000  21.64800000  14.87700000  0.00000000
O        O   O      14.94300000  20.51400000  15.37400000  0.00000000
O        O   O      14.17100000  22.25500000  13.33100000  0.00000000
H        H   H      13.50900000  22.89100000  13.05300000  0.00000000
O        O   O      12.23400000  20.88500000  14.80500000  0.00000000
C        C   C      13.70100000  23.02100000  16.07100000  0.00000000
H        H   H      14.65700000  23.49800000  16.11600000  0.00000000
H        H   H      12.96200000  23.73100000  15.75900000  0.00000000
N        N   N      13.35000000  22.50000000  17.39900000  0.00000000
H        H   H      12.45600000  22.05400000  17.35700000  0.00000000
C        C   C      13.29900000  23.60800000  18.36300000  0.00000000
H        H   H      12.56000000  24.31800000  18.05200000  0.00000000
H        H   H      14.25500000  24.08500000  18.40900000  0.00000000
C        C   C      12.93200000  23.06200000  19.75500000  0.00000000
O        O   O      13.26500000  21.89300000  20.08000000  0.00000000
O        O   O      12.21100000  23.88300000  20.67800000  0.00000000
H        H   H      11.67100000  23.32800000  21.24600000  0.00000000
