data_Movie_nu1000_modified_1.1.2_100.000000_0.000000_allcomponents

_cell_length_a  39.97000000
_cell_length_b  40.00000000
_cell_length_c  33.16000000
_cell_angle_alpha  90.00000000
_cell_angle_beta   90.00000000
_cell_angle_gamma  120.00000000


_symmetry_space_group_name_Hall ' P 1'
_symmetry_space_group_name_H-M  'P 1'
_symmetry_Int_Tables_number     1

loop_
_atom_site_label
_atom_site_type_symbol
_atom_site_forcefield_label
_atom_site_Cartn_x
_atom_site_Cartn_y
_atom_site_Cartn_z
_atom_site_charge
P        P   P      12.60500000  21.87200000  16.53100000  0.00000000
O        O   O      11.96600000  21.12000000  17.92800000  0.00000000
O        O   O      14.31000000  21.93900000  16.64800000  0.00000000
H        H   H      14.66700000  22.36100000  15.86400000  0.00000000
O        O   O      12.16400000  20.96900000  15.14600000  0.00000000
C        C   C      11.93900000  23.56000000  16.39200000  0.00000000
H        H   H      12.21500000  24.12400000  17.25800000  0.00000000
H        H   H      12.33900000  24.03100000  15.51800000  0.00000000
N        N   N      10.47400000  23.50300000  16.29200000  0.00000000
H        H   H      10.21600000  22.97500000  15.48200000  0.00000000
C        C   C      9.93600000  24.86600000  16.17900000  0.00000000
H        H   H      10.33500000  25.33600000  15.30500000  0.00000000
H        H   H      10.21100000  25.43000000  17.04600000  0.00000000
C        C   C      8.40100000  24.80500000  16.07400000  0.00000000
O        O   O      7.76800000  23.86800000  16.62700000  0.00000000
O        O   O      7.69400000  25.81400000  15.34700000  0.00000000
H        H   H      6.89300000  25.43700000  14.97500000  0.00000000
