data_Movie_nu1000_modified_1.1.2_100.000000_0.000000_allcomponents

_cell_length_a  39.97000000
_cell_length_b  40.00000000
_cell_length_c  33.16000000
_cell_angle_alpha  90.00000000
_cell_angle_beta   90.00000000
_cell_angle_gamma  120.00000000


_symmetry_space_group_name_Hall ' P 1'
_symmetry_space_group_name_H-M  'P 1'
_symmetry_Int_Tables_number     1

loop_
_atom_site_label
_atom_site_type_symbol
_atom_site_forcefield_label
_atom_site_Cartn_x
_atom_site_Cartn_y
_atom_site_Cartn_z
_atom_site_charge
P        P   P      13.78600000  21.67900000  14.90100000  0.00000000
O        O   O      14.94700000  20.53800000  15.42500000  0.00000000
O        O   O      14.19700000  22.23400000  13.33700000  0.00000000
H        H   H      13.54500000  22.87400000  13.04300000  0.00000000
O        O   O      12.24200000  20.94200000  14.85700000  0.00000000
C        C   C      13.75300000  23.08600000  16.05600000  0.00000000
H        H   H      14.71800000  23.54600000  16.08300000  0.00000000
H        H   H      13.02700000  23.80000000  15.72700000  0.00000000
N        N   N      13.40000000  22.60900000  17.40000000  0.00000000
H        H   H      12.49800000  22.17800000  17.37400000  0.00000000
C        C   C      13.37300000  23.74400000  18.33200000  0.00000000
H        H   H      12.64600000  24.45800000  18.00500000  0.00000000
H        H   H      14.33900000  24.20500000  18.36000000  0.00000000
C        C   C      13.00300000  23.24400000  19.74100000  0.00000000
O        O   O      13.31700000  22.07900000  20.09800000  0.00000000
O        O   O      12.30300000  24.10400000  20.64400000  0.00000000
H        H   H      11.75500000  23.57600000  21.22900000  0.00000000
