data_Movie_nu1000_modified_1.1.2_100.000000_0.000000_allcomponents

_cell_length_a  39.97000000
_cell_length_b  40.00000000
_cell_length_c  33.16000000
_cell_angle_alpha  90.00000000
_cell_angle_beta   90.00000000
_cell_angle_gamma  120.00000000


_symmetry_space_group_name_Hall ' P 1'
_symmetry_space_group_name_H-M  'P 1'
_symmetry_Int_Tables_number     1

loop_
_atom_site_label
_atom_site_type_symbol
_atom_site_forcefield_label
_atom_site_Cartn_x
_atom_site_Cartn_y
_atom_site_Cartn_z
_atom_site_charge
P        P   P      13.82300000  21.61500000  14.92600000  0.00000000
O        O   O      15.04700000  20.54700000  15.46100000  0.00000000
O        O   O      14.16800000  22.12600000  13.33100000  0.00000000
H        H   H      13.48000000  22.72500000  13.03200000  0.00000000
O        O   O      12.31300000  20.81100000  14.95300000  0.00000000
C        C   C      13.75900000  23.06400000  16.02700000  0.00000000
H        H   H      14.70300000  23.56600000  16.01000000  0.00000000
H        H   H      12.99300000  23.73200000  15.69200000  0.00000000
N        N   N      13.46200000  22.62500000  17.39800000  0.00000000
H        H   H      12.57900000  22.15500000  17.41300000  0.00000000
C        C   C      13.40900000  23.79400000  18.28600000  0.00000000
H        H   H      12.64300000  24.46300000  17.95200000  0.00000000
H        H   H      14.35400000  24.29700000  18.27000000  0.00000000
C        C   C      13.09900000  23.33400000  19.72300000  0.00000000
O        O   O      13.47300000  22.19900000  20.11500000  0.00000000
O        O   O      12.38500000  24.19800000  20.61100000  0.00000000
H        H   H      11.87700000  23.67000000  21.23100000  0.00000000
