data_Movie_nu1000_modified_1.1.2_100.000000_0.000000_allcomponents

_cell_length_a  39.97000000
_cell_length_b  40.00000000
_cell_length_c  33.16000000
_cell_angle_alpha  90.00000000
_cell_angle_beta   90.00000000
_cell_angle_gamma  120.00000000


_symmetry_space_group_name_Hall ' P 1'
_symmetry_space_group_name_H-M  'P 1'
_symmetry_Int_Tables_number     1

loop_
_atom_site_label
_atom_site_type_symbol
_atom_site_forcefield_label
_atom_site_Cartn_x
_atom_site_Cartn_y
_atom_site_Cartn_z
_atom_site_charge
P        P   P      13.47300000  21.88100000  14.97800000  0.00000000
O        O   O      14.83800000  20.87100000  15.17500000  0.00000000
O        O   O      13.49500000  22.57100000  13.41400000  0.00000000
H        H   H      12.72800000  23.13700000  13.30300000  0.00000000
O        O   O      12.04700000  20.95600000  15.17300000  0.00000000
C        C   C      13.51200000  23.20600000  16.22600000  0.00000000
H        H   H      14.40400000  23.78400000  16.10400000  0.00000000
H        H   H      12.65700000  23.83800000  16.10200000  0.00000000
N        N   N      13.49300000  22.61300000  17.57100000  0.00000000
H        H   H      12.66000000  22.07300000  17.68400000  0.00000000
C        C   C      13.52400000  23.68300000  18.57800000  0.00000000
H        H   H      12.67000000  24.31400000  18.45500000  0.00000000
H        H   H      14.41700000  24.26100000  18.45700000  0.00000000
C        C   C      13.50500000  23.06100000  19.98700000  0.00000000
O        O   O      14.01500000  21.92800000  20.18300000  0.00000000
O        O   O      12.90600000  23.77300000  21.07400000  0.00000000
H        H   H      12.55200000  23.14700000  21.70900000  0.00000000
