data_Movie_nu1000_modified_1.1.2_100.000000_0.000000_allcomponents

_cell_length_a  39.97000000
_cell_length_b  40.00000000
_cell_length_c  33.16000000
_cell_angle_alpha  90.00000000
_cell_angle_beta   90.00000000
_cell_angle_gamma  120.00000000


_symmetry_space_group_name_Hall ' P 1'
_symmetry_space_group_name_H-M  'P 1'
_symmetry_Int_Tables_number     1

loop_
_atom_site_label
_atom_site_type_symbol
_atom_site_forcefield_label
_atom_site_Cartn_x
_atom_site_Cartn_y
_atom_site_Cartn_z
_atom_site_charge
P        P   P      13.38700000  21.83500000  15.36700000  0.00000000
O        O   O      14.62100000  20.71800000  15.75900000  0.00000000
O        O   O      13.70500000  22.52300000  13.83400000  0.00000000
H        H   H      13.01200000  23.14900000  13.61400000  0.00000000
O        O   O      11.88000000  21.02800000  15.32800000  0.00000000
C        C   C      13.33800000  23.15200000  16.62400000  0.00000000
H        H   H      14.28100000  23.65600000  16.64800000  0.00000000
H        H   H      12.56600000  23.85100000  16.37800000  0.00000000
N        N   N      13.06500000  22.56100000  17.94100000  0.00000000
H        H   H      12.18400000  22.09000000  17.91800000  0.00000000
C        C   C      13.02500000  23.62400000  18.95600000  0.00000000
H        H   H      12.25200000  24.32300000  18.71100000  0.00000000
H        H   H      13.96800000  24.12900000  18.98100000  0.00000000
C        C   C      12.73900000  23.00500000  20.33700000  0.00000000
O        O   O      13.12100000  21.83400000  20.59300000  0.00000000
O        O   O      12.03700000  23.76200000  21.32800000  0.00000000
H        H   H      11.54100000  23.16500000  21.89300000  0.00000000
