data_Movie_nu1000_modified_1.1.2_100.000000_0.000000_allcomponents

_cell_length_a  39.97000000
_cell_length_b  40.00000000
_cell_length_c  33.16000000
_cell_angle_alpha  90.00000000
_cell_angle_beta   90.00000000
_cell_angle_gamma  120.00000000


_symmetry_space_group_name_Hall ' P 1'
_symmetry_space_group_name_H-M  'P 1'
_symmetry_Int_Tables_number     1

loop_
_atom_site_label
_atom_site_type_symbol
_atom_site_forcefield_label
_atom_site_Cartn_x
_atom_site_Cartn_y
_atom_site_Cartn_z
_atom_site_charge
P        P   P      13.57400000  21.86000000  14.99900000  0.00000000
O        O   O      14.39900000  21.11400000  16.29800000  0.00000000
O        O   O      14.63100000  22.01500000  13.66400000  0.00000000
H        H   H      14.16700000  22.43300000  12.93600000  0.00000000
O        O   O      12.22900000  20.90100000  14.55300000  0.00000000
C        C   C      12.99900000  23.50900000  15.51300000  0.00000000
H        H   H      13.83900000  24.10800000  15.79200000  0.00000000
H        H   H      12.48200000  23.97600000  14.70000000  0.00000000
N        N   N      12.08900000  23.37600000  16.65900000  0.00000000
H        H   H      11.30400000  22.81500000  16.39800000  0.00000000
C        C   C      11.62500000  24.70700000  17.07400000  0.00000000
H        H   H      11.10800000  25.17400000  16.26200000  0.00000000
H        H   H      12.46500000  25.30700000  17.35400000  0.00000000
C        C   C      10.67200000  24.56700000  18.27600000  0.00000000
O        O   O      10.81600000  23.61500000  19.08600000  0.00000000
O        O   O      9.62400000  25.52000000  18.47200000  0.00000000
H        H   H      8.88300000  25.09500000  18.91000000  0.00000000
