data_Movie_nu1000_modified_1.1.2_100.000000_0.000000_allcomponents

_cell_length_a  39.97000000
_cell_length_b  40.00000000
_cell_length_c  33.16000000
_cell_angle_alpha  90.00000000
_cell_angle_beta   90.00000000
_cell_angle_gamma  120.00000000


_symmetry_space_group_name_Hall ' P 1'
_symmetry_space_group_name_H-M  'P 1'
_symmetry_Int_Tables_number     1

loop_
_atom_site_label
_atom_site_type_symbol
_atom_site_forcefield_label
_atom_site_Cartn_x
_atom_site_Cartn_y
_atom_site_Cartn_z
_atom_site_charge
P        P   P      12.56300000  21.84700000  16.60700000  0.00000000
O        O   O      11.90900000  21.14700000  18.02400000  0.00000000
O        O   O      14.26600000  21.92100000  16.73900000  0.00000000
H        H   H      14.63200000  22.31400000  15.94400000  0.00000000
O        O   O      12.13700000  20.89400000  15.25200000  0.00000000
C        C   C      11.89700000  23.52900000  16.39800000  0.00000000
H        H   H      12.16300000  24.12500000  17.24600000  0.00000000
H        H   H      12.30600000  23.96700000  15.51100000  0.00000000
N        N   N      10.43300000  23.46600000  16.28400000  0.00000000
H        H   H      10.18400000  22.90900000  15.49200000  0.00000000
C        C   C      9.89600000  24.82300000  16.11500000  0.00000000
H        H   H      10.30400000  25.26200000  15.22800000  0.00000000
H        H   H      10.16100000  25.42000000  16.96300000  0.00000000
C        C   C      8.36200000  24.75700000  15.99600000  0.00000000
O        O   O      7.72400000  23.84100000  16.57600000  0.00000000
O        O   O      7.66200000  25.73800000  15.22500000  0.00000000
H        H   H      6.86500000  25.34700000  14.85800000  0.00000000
