data_Movie_nu1000_modified_1.1.2_100.000000_0.000000_allcomponents

_cell_length_a  39.97000000
_cell_length_b  40.00000000
_cell_length_c  33.16000000
_cell_angle_alpha  90.00000000
_cell_angle_beta   90.00000000
_cell_angle_gamma  120.00000000


_symmetry_space_group_name_Hall ' P 1'
_symmetry_space_group_name_H-M  'P 1'
_symmetry_Int_Tables_number     1

loop_
_atom_site_label
_atom_site_type_symbol
_atom_site_forcefield_label
_atom_site_Cartn_x
_atom_site_Cartn_y
_atom_site_Cartn_z
_atom_site_charge
P        P   P      12.49400000  21.90100000  16.59600000  0.00000000
O        O   O      11.87500000  21.16400000  18.00900000  0.00000000
O        O   O      14.19600000  22.02000000  16.71300000  0.00000000
H        H   H      14.54300000  22.43300000  15.91900000  0.00000000
O        O   O      12.08100000  20.95400000  15.23200000  0.00000000
C        C   C      11.78000000  23.56600000  16.41700000  0.00000000
H        H   H      12.03800000  24.15700000  17.27000000  0.00000000
H        H   H      12.16800000  24.02700000  15.53200000  0.00000000
N        N   N      10.31700000  23.46400000  16.31600000  0.00000000
H        H   H      10.07600000  22.91000000  15.51900000  0.00000000
C        C   C      9.74100000  24.80800000  16.17100000  0.00000000
H        H   H      10.12800000  25.26900000  15.28600000  0.00000000
H        H   H      9.99800000  25.40000000  17.02400000  0.00000000
C        C   C      8.20800000  24.70100000  16.06600000  0.00000000
O        O   O      7.60200000  23.75900000  16.64000000  0.00000000
O        O   O      7.47400000  25.67200000  15.31500000  0.00000000
H        H   H      6.68500000  25.26400000  14.95100000  0.00000000
