data_Movie_nu1000_modified_1.1.2_100.000000_0.000000_allcomponents

_cell_length_a  39.97000000
_cell_length_b  40.00000000
_cell_length_c  33.16000000
_cell_angle_alpha  90.00000000
_cell_angle_beta   90.00000000
_cell_angle_gamma  120.00000000


_symmetry_space_group_name_Hall ' P 1'
_symmetry_space_group_name_H-M  'P 1'
_symmetry_Int_Tables_number     1

loop_
_atom_site_label
_atom_site_type_symbol
_atom_site_forcefield_label
_atom_site_Cartn_x
_atom_site_Cartn_y
_atom_site_Cartn_z
_atom_site_charge
P        P   P      12.64500000  21.84700000  16.52200000  0.00000000
O        O   O      12.11700000  21.12900000  17.98200000  0.00000000
O        O   O      14.35300000  21.92400000  16.50900000  0.00000000
H        H   H      14.64900000  22.32600000  15.69000000  0.00000000
O        O   O      12.10600000  20.90900000  15.19800000  0.00000000
C        C   C      11.96200000  23.53000000  16.39200000  0.00000000
H        H   H      12.29900000  24.11600000  17.22100000  0.00000000
H        H   H      12.29300000  23.97900000  15.47900000  0.00000000
N        N   N      10.49400000  23.46500000  16.40400000  0.00000000
H        H   H      10.17900000  22.91600000  15.62900000  0.00000000
C        C   C      9.94200000  24.82300000  16.29800000  0.00000000
H        H   H      10.27200000  25.27300000  15.38500000  0.00000000
H        H   H      10.27900000  25.41000000  17.12700000  0.00000000
C        C   C      8.40400000  24.75500000  16.31000000  0.00000000
O        O   O      7.81900000  23.83000000  16.93200000  0.00000000
O        O   O      7.63900000  25.74300000  15.61400000  0.00000000
H        H   H      6.81400000  25.35500000  15.31300000  0.00000000
