data_Movie_nu1000_modified_1.1.2_100.000000_0.000000_allcomponents

_cell_length_a  39.97000000
_cell_length_b  40.00000000
_cell_length_c  33.16000000
_cell_angle_alpha  90.00000000
_cell_angle_beta   90.00000000
_cell_angle_gamma  120.00000000


_symmetry_space_group_name_Hall ' P 1'
_symmetry_space_group_name_H-M  'P 1'
_symmetry_Int_Tables_number     1

loop_
_atom_site_label
_atom_site_type_symbol
_atom_site_forcefield_label
_atom_site_Cartn_x
_atom_site_Cartn_y
_atom_site_Cartn_z
_atom_site_charge
P        P   P      13.34300000  21.86000000  15.30000000  0.00000000
O        O   O      14.55700000  20.95000000  16.08800000  0.00000000
O        O   O      13.75300000  22.05100000  13.65100000  0.00000000
H        H   H      13.07100000  22.56200000  13.20900000  0.00000000
O        O   O      11.84600000  21.04200000  15.42400000  0.00000000
C        C   C      13.20600000  23.49700000  16.08500000  0.00000000
H        H   H      14.14200000  24.00800000  16.00700000  0.00000000
H        H   H      12.44600000  24.06700000  15.59100000  0.00000000
N        N   N      12.85300000  23.33300000  17.50200000  0.00000000
H        H   H      11.97900000  22.85500000  17.57400000  0.00000000
C        C   C      12.74200000  24.65500000  18.13500000  0.00000000
H        H   H      11.98200000  25.22400000  17.64300000  0.00000000
H        H   H      13.67900000  25.16700000  18.05900000  0.00000000
C        C   C      12.37300000  24.48300000  19.62100000  0.00000000
O        O   O      12.74600000  23.45700000  20.24800000  0.00000000
O        O   O      11.60600000  25.48900000  20.28800000  0.00000000
H        H   H      11.07800000  25.08200000  20.97900000  0.00000000
