data_Movie_nu1000_modified_1.1.2_100.000000_0.000000_allcomponents

_cell_length_a  39.97000000
_cell_length_b  40.00000000
_cell_length_c  33.16000000
_cell_angle_alpha  90.00000000
_cell_angle_beta   90.00000000
_cell_angle_gamma  120.00000000


_symmetry_space_group_name_Hall ' P 1'
_symmetry_space_group_name_H-M  'P 1'
_symmetry_Int_Tables_number     1

loop_
_atom_site_label
_atom_site_type_symbol
_atom_site_forcefield_label
_atom_site_Cartn_x
_atom_site_Cartn_y
_atom_site_Cartn_z
_atom_site_charge
P        P   P      12.34300000  21.92600000  16.49300000  0.00000000
O        O   O      11.51900000  21.26100000  17.83600000  0.00000000
O        O   O      14.03000000  21.84300000  16.76100000  0.00000000
H        H   H      14.49200000  22.21500000  16.00700000  0.00000000
O        O   O      11.94500000  21.04000000  15.08500000  0.00000000
C        C   C      11.84800000  23.66400000  16.27700000  0.00000000
H        H   H      12.09700000  24.21800000  17.15800000  0.00000000
H        H   H      12.36400000  24.08000000  15.43700000  0.00000000
N        N   N      10.39900000  23.73600000  16.04700000  0.00000000
H        H   H      10.16600000  23.21800000  15.22400000  0.00000000
C        C   C      9.99900000  25.14000000  15.87200000  0.00000000
H        H   H      10.51400000  25.55500000  15.03100000  0.00000000
H        H   H      10.24700000  25.69400000  16.75300000  0.00000000
C        C   C      8.48000000  25.21500000  15.63100000  0.00000000
O        O   O      7.71900000  24.34900000  16.13600000  0.00000000
O        O   O      7.93400000  26.26900000  14.83300000  0.00000000
H        H   H      7.13800000  25.95900000  14.39500000  0.00000000
