data_Movie_nu1000_modified_1.1.2_100.000000_0.000000_allcomponents

_cell_length_a  39.97000000
_cell_length_b  40.00000000
_cell_length_c  33.16000000
_cell_angle_alpha  90.00000000
_cell_angle_beta   90.00000000
_cell_angle_gamma  120.00000000


_symmetry_space_group_name_Hall ' P 1'
_symmetry_space_group_name_H-M  'P 1'
_symmetry_Int_Tables_number     1

loop_
_atom_site_label
_atom_site_type_symbol
_atom_site_forcefield_label
_atom_site_Cartn_x
_atom_site_Cartn_y
_atom_site_Cartn_z
_atom_site_charge
P        P   P      13.68100000  21.67900000  14.97100000  0.00000000
O        O   O      14.89600000  20.60600000  15.51600000  0.00000000
O        O   O      14.05500000  22.20800000  13.38800000  0.00000000
H        H   H      13.37300000  22.80900000  13.08300000  0.00000000
O        O   O      12.17200000  20.87300000  14.96100000  0.00000000
C        C   C      13.59500000  23.11500000  16.08600000  0.00000000
H        H   H      14.53800000  23.61800000  16.09200000  0.00000000
H        H   H      12.83400000  23.78600000  15.74500000  0.00000000
N        N   N      13.27300000  22.66000000  17.44600000  0.00000000
H        H   H      12.39100000  22.18900000  17.44000000  0.00000000
C        C   C      13.20300000  23.82000000  18.34700000  0.00000000
H        H   H      12.44200000  24.49100000  18.00600000  0.00000000
H        H   H      14.14700000  24.32400000  18.35400000  0.00000000
C        C   C      12.86600000  23.34300000  19.77200000  0.00000000
O        O   O      13.23400000  22.20300000  20.15800000  0.00000000
O        O   O      12.13500000  24.19600000  20.65700000  0.00000000
H        H   H      11.61600000  23.66000000  21.26100000  0.00000000
