data_Movie_nu1000_modified_1.1.2_100.000000_0.000000_allcomponents

_cell_length_a  39.97000000
_cell_length_b  40.00000000
_cell_length_c  33.16000000
_cell_angle_alpha  90.00000000
_cell_angle_beta   90.00000000
_cell_angle_gamma  120.00000000


_symmetry_space_group_name_Hall ' P 1'
_symmetry_space_group_name_H-M  'P 1'
_symmetry_Int_Tables_number     1

loop_
_atom_site_label
_atom_site_type_symbol
_atom_site_forcefield_label
_atom_site_Cartn_x
_atom_site_Cartn_y
_atom_site_Cartn_z
_atom_site_charge
P        P   P      12.37700000  21.93200000  16.55600000  0.00000000
O        O   O      11.85700000  21.13500000  17.97700000  0.00000000
O        O   O      14.07700000  22.11700000  16.59600000  0.00000000
H        H   H      14.36800000  22.56400000  15.79800000  0.00000000
O        O   O      11.93600000  21.00400000  15.18900000  0.00000000
C        C   C      11.59000000  23.57100000  16.45700000  0.00000000
H        H   H      11.86600000  24.15100000  17.31200000  0.00000000
H        H   H      11.91600000  24.06900000  15.56700000  0.00000000
N        N   N      10.13000000  23.41200000  16.42300000  0.00000000
H        H   H      9.87200000  22.86900000  15.62300000  0.00000000
C        C   C      9.49500000  24.73400000  16.34200000  0.00000000
H        H   H      9.82000000  25.23300000  15.45200000  0.00000000
H        H   H      9.77000000  25.31500000  17.19800000  0.00000000
C        C   C      7.96400000  24.56800000  16.30700000  0.00000000
O        O   O      7.42400000  23.58800000  16.88300000  0.00000000
O        O   O      7.15600000  25.52700000  15.61800000  0.00000000
H        H   H      6.36700000  25.09600000  15.28100000  0.00000000
