data_Movie_nu1000_modified_1.1.2_100.000000_0.000000_allcomponents

_cell_length_a  39.97000000
_cell_length_b  40.00000000
_cell_length_c  33.16000000
_cell_angle_alpha  90.00000000
_cell_angle_beta   90.00000000
_cell_angle_gamma  120.00000000


_symmetry_space_group_name_Hall ' P 1'
_symmetry_space_group_name_H-M  'P 1'
_symmetry_Int_Tables_number     1

loop_
_atom_site_label
_atom_site_type_symbol
_atom_site_forcefield_label
_atom_site_Cartn_x
_atom_site_Cartn_y
_atom_site_Cartn_z
_atom_site_charge
P        P   P      13.59000000  21.78600000  15.28800000  0.00000000
O        O   O      14.82800000  20.76100000  15.87300000  0.00000000
O        O   O      13.96700000  22.28300000  13.69600000  0.00000000
H        H   H      13.27200000  22.85800000  13.36800000  0.00000000
O        O   O      12.10400000  20.94000000  15.28400000  0.00000000
C        C   C      13.45300000  23.24800000  16.36400000  0.00000000
H        H   H      14.38300000  23.77700000  16.36600000  0.00000000
H        H   H      12.67900000  23.88900000  15.99700000  0.00000000
N        N   N      13.12900000  22.82100000  17.73200000  0.00000000
H        H   H      12.26100000  22.32600000  17.73000000  0.00000000
C        C   C      13.01800000  24.00100000  18.60100000  0.00000000
H        H   H      12.24400000  24.64200000  18.23500000  0.00000000
H        H   H      13.94800000  24.53100000  18.60400000  0.00000000
C        C   C      12.68000000  23.55300000  20.03500000  0.00000000
O        O   O      13.07400000  22.43500000  20.45500000  0.00000000
O        O   O      11.91600000  24.40900000  20.88900000  0.00000000
H        H   H      11.40500000  23.87500000  21.50300000  0.00000000
