data_Movie_nu1000_modified_1.1.2_100.000000_0.000000_allcomponents

_cell_length_a  39.97000000
_cell_length_b  40.00000000
_cell_length_c  33.16000000
_cell_angle_alpha  90.00000000
_cell_angle_beta   90.00000000
_cell_angle_gamma  120.00000000


_symmetry_space_group_name_Hall ' P 1'
_symmetry_space_group_name_H-M  'P 1'
_symmetry_Int_Tables_number     1

loop_
_atom_site_label
_atom_site_type_symbol
_atom_site_forcefield_label
_atom_site_Cartn_x
_atom_site_Cartn_y
_atom_site_Cartn_z
_atom_site_charge
P        P   P      12.53900000  21.84900000  16.63100000  0.00000000
O        O   O      11.94700000  21.15200000  18.07600000  0.00000000
O        O   O      14.24500000  21.93900000  16.69800000  0.00000000
H        H   H      14.57700000  22.33000000  15.88700000  0.00000000
O        O   O      12.07100000  20.88400000  15.29900000  0.00000000
C        C   C      11.85000000  23.52400000  16.43900000  0.00000000
H        H   H      12.14300000  24.12700000  17.27200000  0.00000000
H        H   H      12.22200000  23.96000000  15.53500000  0.00000000
N        N   N      10.38400000  23.44700000  16.38100000  0.00000000
H        H   H      10.11100000  22.88300000  15.60200000  0.00000000
C        C   C      9.82800000  24.79800000  16.22500000  0.00000000
H        H   H      10.19800000  25.23500000  15.32100000  0.00000000
H        H   H      10.12000000  25.40200000  17.05900000  0.00000000
C        C   C      8.29200000  24.71800000  16.16500000  0.00000000
O        O   O      7.68500000  23.79900000  16.77400000  0.00000000
O        O   O      7.55400000  25.68800000  15.41500000  0.00000000
H        H   H      6.74800000  25.28800000  15.08100000  0.00000000
