data_Movie_nu1000_modified_1.1.2_100.000000_0.000000_allcomponents

_cell_length_a  39.97000000
_cell_length_b  40.00000000
_cell_length_c  33.16000000
_cell_angle_alpha  90.00000000
_cell_angle_beta   90.00000000
_cell_angle_gamma  120.00000000


_symmetry_space_group_name_Hall ' P 1'
_symmetry_space_group_name_H-M  'P 1'
_symmetry_Int_Tables_number     1

loop_
_atom_site_label
_atom_site_type_symbol
_atom_site_forcefield_label
_atom_site_Cartn_x
_atom_site_Cartn_y
_atom_site_Cartn_z
_atom_site_charge
P        P   P      13.55800000  21.84500000  14.78500000  0.00000000
O        O   O      14.95600000  20.87000000  14.92300000  0.00000000
O        O   O      13.50100000  22.54300000  13.22600000  0.00000000
H        H   H      12.71600000  23.09000000  13.14900000  0.00000000
O        O   O      12.16600000  20.88300000  15.03100000  0.00000000
C        C   C      13.61300000  23.16400000  16.03900000  0.00000000
H        H   H      14.48400000  23.76600000  15.88500000  0.00000000
H        H   H      12.73800000  23.77500000  15.95300000  0.00000000
N        N   N      13.66300000  22.56500000  17.38000000  0.00000000
H        H   H      12.84900000  22.00200000  17.52300000  0.00000000
C        C   C      13.70600000  23.63000000  18.39200000  0.00000000
H        H   H      12.83100000  24.24000000  18.30600000  0.00000000
H        H   H      14.57800000  24.23200000  18.23800000  0.00000000
C        C   C      13.75900000  23.00100000  19.79700000  0.00000000
O        O   O      14.30500000  21.88100000  19.96500000  0.00000000
O        O   O      13.18500000  23.69200000  20.91000000  0.00000000
H        H   H      12.87300000  23.05400000  21.55500000  0.00000000
