data_Movie_nu1000_modified_1.1.2_100.000000_0.000000_allcomponents

_cell_length_a  39.97000000
_cell_length_b  40.00000000
_cell_length_c  33.16000000
_cell_angle_alpha  90.00000000
_cell_angle_beta   90.00000000
_cell_angle_gamma  120.00000000


_symmetry_space_group_name_Hall ' P 1'
_symmetry_space_group_name_H-M  'P 1'
_symmetry_Int_Tables_number     1

loop_
_atom_site_label
_atom_site_type_symbol
_atom_site_forcefield_label
_atom_site_Cartn_x
_atom_site_Cartn_y
_atom_site_Cartn_z
_atom_site_charge
P        P   P      12.42600000  21.90100000  16.66400000  0.00000000
O        O   O      11.83400000  21.17800000  18.09700000  0.00000000
O        O   O      14.13000000  22.00900000  16.74100000  0.00000000
H        H   H      14.46200000  22.41400000  15.93600000  0.00000000
O        O   O      11.97500000  20.94800000  15.31700000  0.00000000
C        C   C      11.71900000  23.57000000  16.49000000  0.00000000
H        H   H      12.00100000  24.16500000  17.33200000  0.00000000
H        H   H      12.09000000  24.02200000  15.59300000  0.00000000
N        N   N      10.25400000  23.47700000  16.42400000  0.00000000
H        H   H      9.99100000  22.92000000  15.63600000  0.00000000
C        C   C      9.68400000  24.82400000  16.28300000  0.00000000
H        H   H      10.05300000  25.27700000  15.38600000  0.00000000
H        H   H      9.96500000  25.42100000  17.12500000  0.00000000
C        C   C      8.14800000  24.72700000  16.21400000  0.00000000
O        O   O      7.54900000  23.79400000  16.80800000  0.00000000
O        O   O      7.40300000  25.69800000  15.47300000  0.00000000
H        H   H      6.60300000  25.29400000  15.13000000  0.00000000
