data_Movie_nu1000_modified_1.1.2_100.000000_0.000000_allcomponents

_cell_length_a  39.97000000
_cell_length_b  40.00000000
_cell_length_c  33.16000000
_cell_angle_alpha  90.00000000
_cell_angle_beta   90.00000000
_cell_angle_gamma  120.00000000


_symmetry_space_group_name_Hall ' P 1'
_symmetry_space_group_name_H-M  'P 1'
_symmetry_Int_Tables_number     1

loop_
_atom_site_label
_atom_site_type_symbol
_atom_site_forcefield_label
_atom_site_Cartn_x
_atom_site_Cartn_y
_atom_site_Cartn_z
_atom_site_charge
P        P   P      12.46300000  21.95000000  16.66400000  0.00000000
O        O   O      11.71500000  21.27700000  18.04600000  0.00000000
O        O   O      14.15900000  21.96100000  16.88100000  0.00000000
H        H   H      14.57800000  22.33800000  16.10500000  0.00000000
O        O   O      12.06900000  21.01200000  15.28900000  0.00000000
C        C   C      11.87200000  23.65600000  16.42400000  0.00000000
H        H   H      12.11800000  24.24200000  17.28400000  0.00000000
H        H   H      12.34000000  24.07700000  15.55900000  0.00000000
N        N   N      10.41400000  23.64700000  16.23800000  0.00000000
H        H   H      10.18400000  23.09900000  15.43400000  0.00000000
C        C   C      9.93700000  25.02400000  16.04400000  0.00000000
H        H   H      10.40400000  25.44500000  15.17900000  0.00000000
H        H   H      10.18200000  25.61100000  16.90400000  0.00000000
C        C   C      8.40900000  25.01500000  15.84900000  0.00000000
O        O   O      7.71000000  24.12400000  16.39600000  0.00000000
O        O   O      7.78600000  26.02000000  15.04500000  0.00000000
H        H   H      6.99400000  25.65900000  14.63900000  0.00000000
