data_Movie_nu1000_modified_1.1.2_100.000000_0.000000_allcomponents

_cell_length_a  39.97000000
_cell_length_b  40.00000000
_cell_length_c  33.16000000
_cell_angle_alpha  90.00000000
_cell_angle_beta   90.00000000
_cell_angle_gamma  120.00000000


_symmetry_space_group_name_Hall ' P 1'
_symmetry_space_group_name_H-M  'P 1'
_symmetry_Int_Tables_number     1

loop_
_atom_site_label
_atom_site_type_symbol
_atom_site_forcefield_label
_atom_site_Cartn_x
_atom_site_Cartn_y
_atom_site_Cartn_z
_atom_site_charge
P        P   P      13.59900000  21.71600000  14.70200000  0.00000000
O        O   O      14.82500000  20.58300000  15.07400000  0.00000000
O        O   O      13.86000000  22.34500000  13.13300000  0.00000000
H        H   H      13.17200000  22.98000000  12.92500000  0.00000000
O        O   O      12.07400000  20.94400000  14.76000000  0.00000000
C        C   C      13.63900000  23.07400000  15.91400000  0.00000000
H        H   H      14.59300000  23.55600000  15.87800000  0.00000000
H        H   H      12.87100000  23.78200000  15.68100000  0.00000000
N        N   N      13.41400000  22.53400000  17.26200000  0.00000000
H        H   H      12.52200000  22.08200000  17.29600000  0.00000000
C        C   C      13.44600000  23.63000000  18.24100000  0.00000000
H        H   H      12.67800000  24.33800000  18.00800000  0.00000000
H        H   H      14.40000000  24.11200000  18.20500000  0.00000000
C        C   C      13.21100000  23.06300000  19.65400000  0.00000000
O        O   O      13.57800000  21.89300000  19.93200000  0.00000000
O        O   O      12.57400000  23.86900000  20.65000000  0.00000000
H        H   H      12.09100000  23.30300000  21.25700000  0.00000000
