data_Movie_nu1000_modified_1.1.2_100.000000_0.000000_allcomponents

_cell_length_a  39.97000000
_cell_length_b  40.00000000
_cell_length_c  33.16000000
_cell_angle_alpha  90.00000000
_cell_angle_beta   90.00000000
_cell_angle_gamma  120.00000000


_symmetry_space_group_name_Hall ' P 1'
_symmetry_space_group_name_H-M  'P 1'
_symmetry_Int_Tables_number     1

loop_
_atom_site_label
_atom_site_type_symbol
_atom_site_forcefield_label
_atom_site_Cartn_x
_atom_site_Cartn_y
_atom_site_Cartn_z
_atom_site_charge
P        P   P      12.49500000  21.89800000  16.58300000  0.00000000
O        O   O      11.92500000  21.18600000  18.03000000  0.00000000
O        O   O      14.20400000  21.95400000  16.60900000  0.00000000
H        H   H      14.52300000  22.35300000  15.79700000  0.00000000
O        O   O      11.97600000  20.96600000  15.24600000  0.00000000
C        C   C      11.83400000  23.58900000  16.43700000  0.00000000
H        H   H      12.15900000  24.17100000  17.27300000  0.00000000
H        H   H      12.19200000  24.03400000  15.53200000  0.00000000
N        N   N      10.36600000  23.54100000  16.41400000  0.00000000
H        H   H      10.06300000  22.99600000  15.63300000  0.00000000
C        C   C      9.83300000  24.90500000  16.29600000  0.00000000
H        H   H      10.18900000  25.35000000  15.39000000  0.00000000
H        H   H      10.15700000  25.48800000  17.13200000  0.00000000
C        C   C      8.29400000  24.85500000  16.27200000  0.00000000
O        O   O      7.68400000  23.93700000  16.88000000  0.00000000
O        O   O      7.55700000  25.85100000  15.55800000  0.00000000
H        H   H      6.73500000  25.47300000  15.23800000  0.00000000
