data_Movie_nu1000_modified_1.1.2_100.000000_0.000000_allcomponents

_cell_length_a  39.97000000
_cell_length_b  40.00000000
_cell_length_c  33.16000000
_cell_angle_alpha  90.00000000
_cell_angle_beta   90.00000000
_cell_angle_gamma  120.00000000


_symmetry_space_group_name_Hall ' P 1'
_symmetry_space_group_name_H-M  'P 1'
_symmetry_Int_Tables_number     1

loop_
_atom_site_label
_atom_site_type_symbol
_atom_site_forcefield_label
_atom_site_Cartn_x
_atom_site_Cartn_y
_atom_site_Cartn_z
_atom_site_charge
P        P   P      13.64300000  21.78600000  14.94700000  0.00000000
O        O   O      14.89400000  20.83500000  15.62000000  0.00000000
O        O   O      14.03800000  22.18700000  13.33200000  0.00000000
H        H   H      13.33500000  22.72000000  12.95400000  0.00000000
O        O   O      12.17900000  20.90300000  14.97300000  0.00000000
C        C   C      13.44900000  23.31200000  15.92100000  0.00000000
H        H   H      14.36500000  23.86300000  15.90400000  0.00000000
H        H   H      12.66600000  23.90700000  15.49900000  0.00000000
N        N   N      13.11000000  22.96700000  17.30900000  0.00000000
H        H   H      12.25400000  22.45100000  17.32400000  0.00000000
C        C   C      12.95300000  24.19900000  18.09500000  0.00000000
H        H   H      12.17000000  24.79400000  17.67400000  0.00000000
H        H   H      13.86900000  24.75100000  18.07900000  0.00000000
C        C   C      12.59800000  23.83800000  19.55000000  0.00000000
O        O   O      13.01200000  22.76000000  20.05000000  0.00000000
O        O   O      11.79700000  24.72800000  20.33200000  0.00000000
H        H   H      11.28800000  24.22200000  20.97000000  0.00000000
