data_Movie_nu1000_modified_1.1.2_100.000000_0.000000_allcomponents

_cell_length_a  39.97000000
_cell_length_b  40.00000000
_cell_length_c  33.16000000
_cell_angle_alpha  90.00000000
_cell_angle_beta   90.00000000
_cell_angle_gamma  120.00000000


_symmetry_space_group_name_Hall ' P 1'
_symmetry_space_group_name_H-M  'P 1'
_symmetry_Int_Tables_number     1

loop_
_atom_site_label
_atom_site_type_symbol
_atom_site_forcefield_label
_atom_site_Cartn_x
_atom_site_Cartn_y
_atom_site_Cartn_z
_atom_site_charge
P        P   P      12.36800000  21.94300000  16.47900000  0.00000000
O        O   O      11.73700000  21.16200000  17.86400000  0.00000000
O        O   O      14.07100000  22.03300000  16.60200000  0.00000000
H        H   H      14.42500000  22.47100000  15.82400000  0.00000000
O        O   O      11.94300000  21.05400000  15.08100000  0.00000000
C        C   C      11.67800000  23.62400000  16.36300000  0.00000000
H        H   H      11.94400000  24.17900000  17.23700000  0.00000000
H        H   H      12.07300000  24.11200000  15.49600000  0.00000000
N        N   N      10.21400000  23.54600000  16.25800000  0.00000000
H        H   H      9.96600000  23.02600000  15.44000000  0.00000000
C        C   C      9.65700000  24.90300000  16.16300000  0.00000000
H        H   H      10.05100000  25.39100000  15.29600000  0.00000000
H        H   H      9.92200000  25.45900000  17.03800000  0.00000000
C        C   C      8.12300000  24.82100000  16.05300000  0.00000000
O        O   O      7.50300000  23.86800000  16.59100000  0.00000000
O        O   O      7.40300000  25.83000000  15.33900000  0.00000000
H        H   H      6.60900000  25.44800000  14.96000000  0.00000000
