data_Movie_nu1000_modified_1.1.2_100.000000_0.000000_allcomponents

_cell_length_a  39.97000000
_cell_length_b  40.00000000
_cell_length_c  33.16000000
_cell_angle_alpha  90.00000000
_cell_angle_beta   90.00000000
_cell_angle_gamma  120.00000000


_symmetry_space_group_name_Hall ' P 1'
_symmetry_space_group_name_H-M  'P 1'
_symmetry_Int_Tables_number     1

loop_
_atom_site_label
_atom_site_type_symbol
_atom_site_forcefield_label
_atom_site_Cartn_x
_atom_site_Cartn_y
_atom_site_Cartn_z
_atom_site_charge
P        P   P      13.54500000  21.61500000  15.28000000  0.00000000
O        O   O      14.71000000  20.41400000  15.63400000  0.00000000
O        O   O      13.83200000  22.24400000  13.71600000  0.00000000
H        H   H      13.17800000  22.91800000  13.51800000  0.00000000
O        O   O      11.98000000  20.92700000  15.34000000  0.00000000
C        C   C      13.66500000  22.95600000  16.50500000  0.00000000
H        H   H      14.64400000  23.38600000  16.46800000  0.00000000
H        H   H      12.93600000  23.70800000  16.28300000  0.00000000
N        N   N      13.41900000  22.41600000  17.84900000  0.00000000
H        H   H      12.50400000  22.01300000  17.88400000  0.00000000
C        C   C      13.51500000  23.49800000  18.83800000  0.00000000
H        H   H      12.78600000  24.25000000  18.61700000  0.00000000
H        H   H      14.49500000  23.92900000  18.80200000  0.00000000
C        C   C      13.25800000  22.93200000  20.24700000  0.00000000
O        O   O      13.56300000  21.74000000  20.51200000  0.00000000
O        O   O      12.67100000  23.76000000  21.25500000  0.00000000
H        H   H      12.16200000  23.21600000  21.85900000  0.00000000
