data_Movie_nu1000_modified_1.1.2_100.000000_0.000000_allcomponents

_cell_length_a  39.97000000
_cell_length_b  40.00000000
_cell_length_c  33.16000000
_cell_angle_alpha  90.00000000
_cell_angle_beta   90.00000000
_cell_angle_gamma  120.00000000


_symmetry_space_group_name_Hall ' P 1'
_symmetry_space_group_name_H-M  'P 1'
_symmetry_Int_Tables_number     1

loop_
_atom_site_label
_atom_site_type_symbol
_atom_site_forcefield_label
_atom_site_Cartn_x
_atom_site_Cartn_y
_atom_site_Cartn_z
_atom_site_charge
P        P   P      13.46500000  21.75100000  15.34200000  0.00000000
O        O   O      14.69800000  20.67100000  15.83200000  0.00000000
O        O   O      13.79600000  22.31600000  13.76300000  0.00000000
H        H   H      13.10300000  22.92200000  13.48900000  0.00000000
O        O   O      11.95900000  20.93900000  15.35400000  0.00000000
C        C   C      13.40300000  23.16200000  16.49100000  0.00000000
H        H   H      14.34500000  23.66900000  16.48400000  0.00000000
H        H   H      12.63100000  23.83700000  16.18500000  0.00000000
N        N   N      13.11900000  22.67600000  17.84900000  0.00000000
H        H   H      12.23900000  22.20200000  17.85600000  0.00000000
C        C   C      13.06800000  23.81500000  18.77600000  0.00000000
H        H   H      12.29600000  24.49100000  18.47100000  0.00000000
H        H   H      14.01000000  24.32300000  18.77000000  0.00000000
C        C   C      12.77100000  23.30600000  20.19900000  0.00000000
O        O   O      13.15300000  22.16000000  20.55000000  0.00000000
O        O   O      12.06000000  24.13600000  21.12100000  0.00000000
H        H   H      11.55900000  23.58500000  21.72700000  0.00000000
