data_Movie_nu1000_modified_1.1.2_100.000000_0.000000_allcomponents

_cell_length_a  39.97000000
_cell_length_b  40.00000000
_cell_length_c  33.16000000
_cell_angle_alpha  90.00000000
_cell_angle_beta   90.00000000
_cell_angle_gamma  120.00000000


_symmetry_space_group_name_Hall ' P 1'
_symmetry_space_group_name_H-M  'P 1'
_symmetry_Int_Tables_number     1

loop_
_atom_site_label
_atom_site_type_symbol
_atom_site_forcefield_label
_atom_site_Cartn_x
_atom_site_Cartn_y
_atom_site_Cartn_z
_atom_site_charge
P        P   P      12.56300000  21.85500000  16.56000000  0.00000000
O        O   O      11.99600000  21.13100000  18.00200000  0.00000000
O        O   O      14.26700000  21.98200000  16.61600000  0.00000000
H        H   H      14.58400000  22.38800000  15.80700000  0.00000000
O        O   O      12.10600000  20.89300000  15.22100000  0.00000000
C        C   C      11.83600000  23.51600000  16.38900000  0.00000000
H        H   H      12.12200000  24.11700000  17.22600000  0.00000000
H        H   H      12.19100000  23.96900000  15.48600000  0.00000000
N        N   N      10.37100000  23.40800000  16.34000000  0.00000000
H        H   H      10.10500000  22.84500000  15.55700000  0.00000000
C        C   C      9.78500000  24.74800000  16.20100000  0.00000000
H        H   H      10.13900000  25.20100000  15.29900000  0.00000000
H        H   H      10.07000000  25.35000000  17.03900000  0.00000000
C        C   C      8.25000000  24.63500000  16.15100000  0.00000000
O        O   O      7.66800000  23.69700000  16.75500000  0.00000000
O        O   O      7.48600000  25.59500000  15.41600000  0.00000000
H        H   H      6.68700000  25.18100000  15.08400000  0.00000000
