data_Movie_nu1000_modified_1.1.2_100.000000_0.000000_allcomponents

_cell_length_a  39.97000000
_cell_length_b  40.00000000
_cell_length_c  33.16000000
_cell_angle_alpha  90.00000000
_cell_angle_beta   90.00000000
_cell_angle_gamma  120.00000000


_symmetry_space_group_name_Hall ' P 1'
_symmetry_space_group_name_H-M  'P 1'
_symmetry_Int_Tables_number     1

loop_
_atom_site_label
_atom_site_type_symbol
_atom_site_forcefield_label
_atom_site_Cartn_x
_atom_site_Cartn_y
_atom_site_Cartn_z
_atom_site_charge
P        P   P      12.61600000  21.79600000  16.57300000  0.00000000
O        O   O      11.94400000  21.09800000  17.98300000  0.00000000
O        O   O      14.32000000  21.82700000  16.70800000  0.00000000
H        H   H      14.69700000  22.21800000  15.91700000  0.00000000
O        O   O      12.16900000  20.86600000  15.20900000  0.00000000
C        C   C      11.99100000  23.49500000  16.38000000  0.00000000
H        H   H      12.27100000  24.07600000  17.23300000  0.00000000
H        H   H      12.41200000  23.93100000  15.49800000  0.00000000
N        N   N      10.52700000  23.46900000  16.26300000  0.00000000
H        H   H      10.26600000  22.92500000  15.46600000  0.00000000
C        C   C      10.02300000  24.84000000  16.10700000  0.00000000
H        H   H      10.44300000  25.27600000  15.22500000  0.00000000
H        H   H      10.30200000  25.42200000  16.96100000  0.00000000
C        C   C      8.48800000  24.81200000  15.98600000  0.00000000
O        O   O      7.82700000  23.90600000  16.55600000  0.00000000
O        O   O      7.81300000  25.81700000  15.22300000  0.00000000
H        H   H      7.00800000  25.44900000  14.85200000  0.00000000
