data_Movie_nu1000_modified_1.1.2_100.000000_0.000000_allcomponents

_cell_length_a  39.97000000
_cell_length_b  40.00000000
_cell_length_c  33.16000000
_cell_angle_alpha  90.00000000
_cell_angle_beta   90.00000000
_cell_angle_gamma  120.00000000


_symmetry_space_group_name_Hall ' P 1'
_symmetry_space_group_name_H-M  'P 1'
_symmetry_Int_Tables_number     1

loop_
_atom_site_label
_atom_site_type_symbol
_atom_site_forcefield_label
_atom_site_Cartn_x
_atom_site_Cartn_y
_atom_site_Cartn_z
_atom_site_charge
P        P   P      12.65600000  21.79600000  16.32300000  0.00000000
O        O   O      11.89400000  21.09400000  17.68400000  0.00000000
O        O   O      14.35300000  21.73600000  16.52500000  0.00000000
H        H   H      14.77900000  22.12900000  15.76100000  0.00000000
O        O   O      12.21700000  20.92900000  14.91500000  0.00000000
C        C   C      12.12500000  23.52900000  16.15800000  0.00000000
H        H   H      12.39900000  24.07100000  17.03900000  0.00000000
H        H   H      12.60200000  23.96800000  15.30600000  0.00000000
N        N   N      10.66700000  23.58100000  15.98500000  0.00000000
H        H   H      10.41100000  23.07500000  15.16200000  0.00000000
C        C   C      10.23900000  24.98100000  15.85100000  0.00000000
H        H   H      10.71500000  25.42000000  14.99900000  0.00000000
H        H   H      10.51200000  25.52300000  16.73200000  0.00000000
C        C   C      8.71000000  25.03500000  15.67000000  0.00000000
O        O   O      7.98300000  24.14800000  16.18800000  0.00000000
O        O   O      8.11700000  26.09400000  14.91300000  0.00000000
H        H   H      7.31000000  25.77900000  14.50100000  0.00000000
