data_Movie_nu1000_modified_1.1.2_100.000000_0.000000_allcomponents

_cell_length_a  39.97000000
_cell_length_b  40.00000000
_cell_length_c  33.16000000
_cell_angle_alpha  90.00000000
_cell_angle_beta   90.00000000
_cell_angle_gamma  120.00000000


_symmetry_space_group_name_Hall ' P 1'
_symmetry_space_group_name_H-M  'P 1'
_symmetry_Int_Tables_number     1

loop_
_atom_site_label
_atom_site_type_symbol
_atom_site_forcefield_label
_atom_site_Cartn_x
_atom_site_Cartn_y
_atom_site_Cartn_z
_atom_site_charge
P        P   P      12.38200000  21.91600000  16.80200000  0.00000000
O        O   O      11.61400000  21.27700000  18.19000000  0.00000000
O        O   O      14.07500000  21.92400000  17.03900000  0.00000000
H        H   H      14.50600000  22.28100000  16.26000000  0.00000000
O        O   O      12.00100000  20.94800000  15.44400000  0.00000000
C        C   C      11.80200000  23.61800000  16.51600000  0.00000000
H        H   H      12.04000000  24.22300000  17.36500000  0.00000000
H        H   H      12.28300000  24.01700000  15.64700000  0.00000000
N        N   N      10.34700000  23.61200000  16.31200000  0.00000000
H        H   H      10.12400000  23.04600000  15.51800000  0.00000000
C        C   C      9.87800000  24.98500000  16.08000000  0.00000000
H        H   H      10.35800000  25.38500000  15.21200000  0.00000000
H        H   H      10.11600000  25.59100000  16.93000000  0.00000000
C        C   C      8.35300000  24.97900000  15.86700000  0.00000000
O        O   O      7.64300000  24.10300000  16.42600000  0.00000000
O        O   O      7.74400000  25.96800000  15.03300000  0.00000000
H        H   H      6.95600000  25.60200000  14.62500000  0.00000000
