data_Movie_nu1000_modified_1.1.2_100.000000_0.000000_allcomponents

_cell_length_a  39.97000000
_cell_length_b  40.00000000
_cell_length_c  33.16000000
_cell_angle_alpha  90.00000000
_cell_angle_beta   90.00000000
_cell_angle_gamma  120.00000000


_symmetry_space_group_name_Hall ' P 1'
_symmetry_space_group_name_H-M  'P 1'
_symmetry_Int_Tables_number     1

loop_
_atom_site_label
_atom_site_type_symbol
_atom_site_forcefield_label
_atom_site_Cartn_x
_atom_site_Cartn_y
_atom_site_Cartn_z
_atom_site_charge
P        P   P      12.76000000  21.73400000  16.32500000  0.00000000
O        O   O      12.22100000  20.94500000  17.74300000  0.00000000
O        O   O      14.46900000  21.79700000  16.32100000  0.00000000
H        H   H      14.77100000  22.23900000  15.52500000  0.00000000
O        O   O      12.21700000  20.87100000  14.95200000  0.00000000
C        C   C      12.09100000  23.42700000  16.28200000  0.00000000
H        H   H      12.43100000  23.96600000  17.14100000  0.00000000
H        H   H      12.42900000  23.92100000  15.39400000  0.00000000
N        N   N      10.62300000  23.37400000  16.28500000  0.00000000
H        H   H      10.30600000  22.86900000  15.48200000  0.00000000
C        C   C      10.08200000  24.74000000  16.25000000  0.00000000
H        H   H      10.41900000  25.23400000  15.36200000  0.00000000
H        H   H      10.42100000  25.28000000  17.10900000  0.00000000
C        C   C      8.54300000  24.68400000  16.25400000  0.00000000
O        O   O      7.95000000  23.73300000  16.82500000  0.00000000
O        O   O      7.78900000  25.71400000  15.60800000  0.00000000
H        H   H      6.96200000  25.34900000  15.28500000  0.00000000
