data_Movie_nu1000_modified_1.1.2_100.000000_0.000000_allcomponents

_cell_length_a  39.97000000
_cell_length_b  40.00000000
_cell_length_c  33.16000000
_cell_angle_alpha  90.00000000
_cell_angle_beta   90.00000000
_cell_angle_gamma  120.00000000


_symmetry_space_group_name_Hall ' P 1'
_symmetry_space_group_name_H-M  'P 1'
_symmetry_Int_Tables_number     1

loop_
_atom_site_label
_atom_site_type_symbol
_atom_site_forcefield_label
_atom_site_Cartn_x
_atom_site_Cartn_y
_atom_site_Cartn_z
_atom_site_charge
P        P   P      12.23200000  22.00000000  16.73500000  0.00000000
O        O   O      11.61000000  21.33700000  18.18400000  0.00000000
O        O   O      13.93700000  22.07900000  16.82900000  0.00000000
H        H   H      14.28500000  22.45100000  16.01600000  0.00000000
O        O   O      11.77900000  21.01000000  15.41500000  0.00000000
C        C   C      11.55900000  23.67500000  16.49600000  0.00000000
H        H   H      11.84200000  24.29300000  17.32200000  0.00000000
H        H   H      11.94800000  24.08900000  15.58900000  0.00000000
N        N   N      10.09300000  23.60700000  16.41500000  0.00000000
H        H   H      9.82800000  23.02800000  15.64400000  0.00000000
C        C   C      9.55000000  24.95800000  16.22200000  0.00000000
H        H   H      9.93800000  25.37300000  15.31500000  0.00000000
H        H   H      9.83200000  25.57800000  17.04800000  0.00000000
C        C   C      8.01300000  24.88700000  16.13800000  0.00000000
O        O   O      7.39000000  23.98600000  16.75600000  0.00000000
O        O   O      7.29500000  25.84600000  15.35600000  0.00000000
H        H   H      6.49200000  25.44500000  15.01700000  0.00000000
