data_Movie_nu1000_modified_1.1.2_100.000000_0.000000_allcomponents

_cell_length_a  39.97000000
_cell_length_b  40.00000000
_cell_length_c  33.16000000
_cell_angle_alpha  90.00000000
_cell_angle_beta   90.00000000
_cell_angle_gamma  120.00000000


_symmetry_space_group_name_Hall ' P 1'
_symmetry_space_group_name_H-M  'P 1'
_symmetry_Int_Tables_number     1

loop_
_atom_site_label
_atom_site_type_symbol
_atom_site_forcefield_label
_atom_site_Cartn_x
_atom_site_Cartn_y
_atom_site_Cartn_z
_atom_site_charge
P        P   P      13.57400000  21.80800000  15.19400000  0.00000000
O        O   O      14.78700000  20.90000000  15.98700000  0.00000000
O        O   O      14.04400000  22.09800000  13.57600000  0.00000000
H        H   H      13.36200000  22.60700000  13.13200000  0.00000000
O        O   O      12.10300000  20.93500000  15.21400000  0.00000000
C        C   C      13.34700000  23.39700000  16.05400000  0.00000000
H        H   H      14.26600000  23.94300000  16.04200000  0.00000000
H        H   H      12.58800000  23.96600000  15.55800000  0.00000000
N        N   N      12.94300000  23.14800000  17.44500000  0.00000000
H        H   H      12.08300000  22.63800000  17.45600000  0.00000000
C        C   C      12.75900000  24.43100000  18.13900000  0.00000000
H        H   H      12.00000000  24.99900000  17.64300000  0.00000000
H        H   H      13.67900000  24.97800000  18.12800000  0.00000000
C        C   C      12.33600000  24.17000000  19.59700000  0.00000000
O        O   O      12.72000000  23.12700000  20.18600000  0.00000000
O        O   O      11.50700000  25.11400000  20.28000000  0.00000000
H        H   H      10.96600000  24.65500000  20.92700000  0.00000000
