data_Movie_nu1000_modified_1.1.2_100.000000_0.000000_allcomponents

_cell_length_a  39.97000000
_cell_length_b  40.00000000
_cell_length_c  33.16000000
_cell_angle_alpha  90.00000000
_cell_angle_beta   90.00000000
_cell_angle_gamma  120.00000000


_symmetry_space_group_name_Hall ' P 1'
_symmetry_space_group_name_H-M  'P 1'
_symmetry_Int_Tables_number     1

loop_
_atom_site_label
_atom_site_type_symbol
_atom_site_forcefield_label
_atom_site_Cartn_x
_atom_site_Cartn_y
_atom_site_Cartn_z
_atom_site_charge
P        P   P      12.38300000  21.96500000  16.60600000  0.00000000
O        O   O      11.80600000  21.15200000  17.99600000  0.00000000
O        O   O      14.08600000  22.09000000  16.68300000  0.00000000
H        H   H      14.40900000  22.54600000  15.90300000  0.00000000
O        O   O      11.93700000  21.08800000  15.20700000  0.00000000
C        C   C      11.65500000  23.63300000  16.53400000  0.00000000
H        H   H      11.93300000  24.18100000  17.40900000  0.00000000
H        H   H      12.01600000  24.14200000  15.66400000  0.00000000
N        N   N      10.19100000  23.52600000  16.46700000  0.00000000
H        H   H      9.93100000  23.01300000  15.64900000  0.00000000
C        C   C      9.60400000  24.87200000  16.40800000  0.00000000
H        H   H      9.96400000  25.38100000  15.53800000  0.00000000
H        H   H      9.88100000  25.42100000  17.28400000  0.00000000
C        C   C      8.06900000  24.76000000  16.33900000  0.00000000
O        O   O      7.48400000  23.78600000  16.87900000  0.00000000
O        O   O      7.30900000  25.76400000  15.66000000  0.00000000
H        H   H      6.51300000  25.37000000  15.29600000  0.00000000
