data_Movie_nu1000_modified_1.1.2_100.000000_0.000000_allcomponents

_cell_length_a  39.97000000
_cell_length_b  40.00000000
_cell_length_c  33.16000000
_cell_angle_alpha  90.00000000
_cell_angle_beta   90.00000000
_cell_angle_gamma  120.00000000


_symmetry_space_group_name_Hall ' P 1'
_symmetry_space_group_name_H-M  'P 1'
_symmetry_Int_Tables_number     1

loop_
_atom_site_label
_atom_site_type_symbol
_atom_site_forcefield_label
_atom_site_Cartn_x
_atom_site_Cartn_y
_atom_site_Cartn_z
_atom_site_charge
P        P   P      12.76000000  21.75200000  16.42900000  0.00000000
O        O   O      12.10100000  21.03500000  17.83500000  0.00000000
O        O   O      14.46500000  21.79800000  16.55700000  0.00000000
H        H   H      14.83400000  22.19900000  15.76800000  0.00000000
O        O   O      12.31500000  20.83200000  15.05800000  0.00000000
C        C   C      12.11900000  23.44800000  16.25600000  0.00000000
H        H   H      12.39800000  24.02300000  17.11300000  0.00000000
H        H   H      12.53200000  23.89600000  15.37600000  0.00000000
N        N   N      10.65500000  23.40900000  16.14600000  0.00000000
H        H   H      10.39500000  22.87100000  15.34400000  0.00000000
C        C   C      10.13700000  24.77700000  16.00500000  0.00000000
H        H   H      10.54900000  25.22600000  15.12500000  0.00000000
H        H   H      10.41500000  25.35400000  16.86300000  0.00000000
C        C   C      8.60200000  24.73700000  15.89000000  0.00000000
O        O   O      7.95200000  23.81900000  16.45500000  0.00000000
O        O   O      7.91500000  25.74300000  15.14100000  0.00000000
H        H   H      7.11100000  25.37100000  14.77000000  0.00000000
