data_Movie_nu1000_modified_1.1.2_100.000000_0.000000_allcomponents

_cell_length_a  39.97000000
_cell_length_b  40.00000000
_cell_length_c  33.16000000
_cell_angle_alpha  90.00000000
_cell_angle_beta   90.00000000
_cell_angle_gamma  120.00000000


_symmetry_space_group_name_Hall ' P 1'
_symmetry_space_group_name_H-M  'P 1'
_symmetry_Int_Tables_number     1

loop_
_atom_site_label
_atom_site_type_symbol
_atom_site_forcefield_label
_atom_site_Cartn_x
_atom_site_Cartn_y
_atom_site_Cartn_z
_atom_site_charge
P        P   P      12.57800000  21.87000000  16.38800000  0.00000000
O        O   O      12.02200000  21.09900000  17.81000000  0.00000000
O        O   O      14.28300000  21.98900000  16.43300000  0.00000000
H        H   H      14.59500000  22.42000000  15.63500000  0.00000000
O        O   O      12.10600000  20.95400000  15.02300000  0.00000000
C        C   C      11.85600000  23.53700000  16.28000000  0.00000000
H        H   H      12.15100000  24.10900000  17.13400000  0.00000000
H        H   H      12.20400000  24.01900000  15.39000000  0.00000000
N        N   N      10.39000000  23.43600000  16.24100000  0.00000000
H        H   H      10.11500000  22.90000000  15.44200000  0.00000000
C        C   C      9.80800000  24.78200000  16.15200000  0.00000000
H        H   H      10.15500000  25.26400000  15.26200000  0.00000000
H        H   H      10.10200000  25.35500000  17.00700000  0.00000000
C        C   C      8.27200000  24.67500000  16.11200000  0.00000000
O        O   O      7.69200000  23.72000000  16.69000000  0.00000000
O        O   O      7.50500000  25.66200000  15.41700000  0.00000000
H        H   H      6.70100000  25.26200000  15.07900000  0.00000000
