data_Movie_nu1000_modified_1.1.2_100.000000_0.000000_allcomponents

_cell_length_a  39.97000000
_cell_length_b  40.00000000
_cell_length_c  33.16000000
_cell_angle_alpha  90.00000000
_cell_angle_beta   90.00000000
_cell_angle_gamma  120.00000000


_symmetry_space_group_name_Hall ' P 1'
_symmetry_space_group_name_H-M  'P 1'
_symmetry_Int_Tables_number     1

loop_
_atom_site_label
_atom_site_type_symbol
_atom_site_forcefield_label
_atom_site_Cartn_x
_atom_site_Cartn_y
_atom_site_Cartn_z
_atom_site_charge
P        P   P      13.47300000  21.90000000  14.72300000  0.00000000
O        O   O      14.95100000  21.22900000  15.26000000  0.00000000
O        O   O      13.48900000  22.02600000  13.01800000  0.00000000
H        H   H      12.65900000  22.40200000  12.71700000  0.00000000
O        O   O      12.18000000  20.89000000  15.20700000  0.00000000
C        C   C      13.25700000  23.55400000  15.45200000  0.00000000
H        H   H      14.06500000  24.18500000  15.14900000  0.00000000
H        H   H      12.33100000  23.97300000  15.11600000  0.00000000
N        N   N      13.24200000  23.44500000  16.91700000  0.00000000
H        H   H      12.48600000  22.85500000  17.20000000  0.00000000
C        C   C      13.06700000  24.78000000  17.50600000  0.00000000
H        H   H      12.14100000  25.20000000  17.17100000  0.00000000
H        H   H      13.87600000  25.41200000  17.20400000  0.00000000
C        C   C      13.05200000  24.66700000  19.04200000  0.00000000
O        O   O      13.70300000  23.75200000  19.61200000  0.00000000
O        O   O      12.29900000  25.60000000  19.82100000  0.00000000
H        H   H      11.99900000  25.17500000  20.62700000  0.00000000
