data_Movie_nu1000_modified_1.1.2_100.000000_0.000000_allcomponents

_cell_length_a  39.97000000
_cell_length_b  40.00000000
_cell_length_c  33.16000000
_cell_angle_alpha  90.00000000
_cell_angle_beta   90.00000000
_cell_angle_gamma  120.00000000


_symmetry_space_group_name_Hall ' P 1'
_symmetry_space_group_name_H-M  'P 1'
_symmetry_Int_Tables_number     1

loop_
_atom_site_label
_atom_site_type_symbol
_atom_site_forcefield_label
_atom_site_Cartn_x
_atom_site_Cartn_y
_atom_site_Cartn_z
_atom_site_charge
P        P   P      13.83400000  21.64100000  14.96600000  0.00000000
O        O   O      15.06800000  20.56100000  15.44900000  0.00000000
O        O   O      14.17400000  22.23300000  13.39800000  0.00000000
H        H   H      13.48100000  22.83800000  13.12700000  0.00000000
O        O   O      12.33300000  20.82100000  14.95200000  0.00000000
C        C   C      13.75400000  23.03300000  16.13600000  0.00000000
H        H   H      14.69200000  23.54600000  16.14400000  0.00000000
H        H   H      12.98100000  23.70900000  15.83300000  0.00000000
N        N   N      13.46000000  22.52500000  17.48300000  0.00000000
H        H   H      12.58300000  22.04600000  17.47500000  0.00000000
C        C   C      13.39500000  23.64900000  18.42700000  0.00000000
H        H   H      12.62200000  24.32500000  18.12600000  0.00000000
H        H   H      14.33400000  24.16200000  18.43700000  0.00000000
C        C   C      13.08900000  23.11700000  19.84000000  0.00000000
O        O   O      13.47400000  21.96700000  20.17600000  0.00000000
O        O   O      12.36500000  23.92900000  20.76800000  0.00000000
H        H   H      11.86200000  23.36500000  21.36100000  0.00000000
