data_Movie_nu1000_modified_1.1.2_100.000000_0.000000_allcomponents

_cell_length_a  39.97000000
_cell_length_b  40.00000000
_cell_length_c  33.16000000
_cell_angle_alpha  90.00000000
_cell_angle_beta   90.00000000
_cell_angle_gamma  120.00000000


_symmetry_space_group_name_Hall ' P 1'
_symmetry_space_group_name_H-M  'P 1'
_symmetry_Int_Tables_number     1

loop_
_atom_site_label
_atom_site_type_symbol
_atom_site_forcefield_label
_atom_site_Cartn_x
_atom_site_Cartn_y
_atom_site_Cartn_z
_atom_site_charge
P        P   P      13.78600000  21.57100000  14.86700000  0.00000000
O        O   O      14.87700000  20.35900000  15.38300000  0.00000000
O        O   O      14.27100000  22.16200000  13.33800000  0.00000000
H        H   H      13.65700000  22.84100000  13.04900000  0.00000000
O        O   O      12.21300000  20.90800000  14.75000000  0.00000000
C        C   C      13.78000000  22.93500000  16.07200000  0.00000000
H        H   H      14.76300000  23.35000000  16.14500000  0.00000000
H        H   H      13.09700000  23.69300000  15.74900000  0.00000000
N        N   N      13.36300000  22.42700000  17.38600000  0.00000000
H        H   H      12.44400000  22.04000000  17.31700000  0.00000000
C        C   C      13.35800000  23.52900000  18.35900000  0.00000000
H        H   H      12.67500000  24.28700000  18.03700000  0.00000000
H        H   H      14.34200000  23.94400000  18.43300000  0.00000000
C        C   C      12.92200000  22.99600000  19.73600000  0.00000000
O        O   O      13.17100000  21.80600000  20.05900000  0.00000000
O        O   O      12.23200000  23.85500000  20.64900000  0.00000000
H        H   H      11.64300000  23.33100000  21.19800000  0.00000000
