data_Movie_nu1000_modified_1.1.2_100.000000_0.000000_allcomponents

_cell_length_a  39.97000000
_cell_length_b  40.00000000
_cell_length_c  33.16000000
_cell_angle_alpha  90.00000000
_cell_angle_beta   90.00000000
_cell_angle_gamma  120.00000000


_symmetry_space_group_name_Hall ' P 1'
_symmetry_space_group_name_H-M  'P 1'
_symmetry_Int_Tables_number     1

loop_
_atom_site_label
_atom_site_type_symbol
_atom_site_forcefield_label
_atom_site_Cartn_x
_atom_site_Cartn_y
_atom_site_Cartn_z
_atom_site_charge
P        P   P      12.45300000  21.91400000  16.58500000  0.00000000
O        O   O      11.85600000  21.16900000  18.00300000  0.00000000
O        O   O      14.15900000  22.00300000  16.66200000  0.00000000
H        H   H      14.49400000  22.42100000  15.86600000  0.00000000
O        O   O      11.99100000  20.99400000  15.21900000  0.00000000
C        C   C      11.76400000  23.59400000  16.44600000  0.00000000
H        H   H      12.05300000  24.16900000  17.30000000  0.00000000
H        H   H      12.13800000  24.06000000  15.55800000  0.00000000
N        N   N      10.29800000  23.51800000  16.37900000  0.00000000
H        H   H      10.02800000  22.98000000  15.58100000  0.00000000
C        C   C      9.74200000  24.87400000  16.26600000  0.00000000
H        H   H      10.11500000  25.34000000  15.37800000  0.00000000
H        H   H      10.03000000  25.45000000  17.12100000  0.00000000
C        C   C      8.20500000  24.79400000  16.19700000  0.00000000
O        O   O      7.59700000  23.85500000  16.77300000  0.00000000
O        O   O      7.47000000  25.78800000  15.47700000  0.00000000
H        H   H      6.66500000  25.39900000  15.12700000  0.00000000
