data_Movie_nu1000_modified_1.1.2_100.000000_0.000000_allcomponents

_cell_length_a  39.97000000
_cell_length_b  40.00000000
_cell_length_c  33.16000000
_cell_angle_alpha  90.00000000
_cell_angle_beta   90.00000000
_cell_angle_gamma  120.00000000


_symmetry_space_group_name_Hall ' P 1'
_symmetry_space_group_name_H-M  'P 1'
_symmetry_Int_Tables_number     1

loop_
_atom_site_label
_atom_site_type_symbol
_atom_site_forcefield_label
_atom_site_Cartn_x
_atom_site_Cartn_y
_atom_site_Cartn_z
_atom_site_charge
P        P   P      13.45200000  21.88000000  15.23400000  0.00000000
O        O   O      14.80400000  20.90800000  15.62100000  0.00000000
O        O   O      13.62400000  22.49200000  13.64700000  0.00000000
H        H   H      12.86500000  23.03800000  13.43100000  0.00000000
O        O   O      12.02700000  20.93900000  15.33100000  0.00000000
C        C   C      13.34500000  23.26600000  16.41100000  0.00000000
H        H   H      14.23600000  23.85400000  16.35000000  0.00000000
H        H   H      12.49800000  23.87500000  16.16800000  0.00000000
N        N   N      13.19600000  22.74000000  17.77500000  0.00000000
H        H   H      12.36300000  22.19000000  17.83100000  0.00000000
C        C   C      13.10900000  23.85900000  18.72400000  0.00000000
H        H   H      12.26200000  24.46700000  18.48300000  0.00000000
H        H   H      14.00100000  24.44800000  18.66500000  0.00000000
C        C   C      12.95400000  23.30800000  20.15400000  0.00000000
O        O   O      13.45700000  22.19500000  20.45800000  0.00000000
O        O   O      12.23700000  24.06100000  21.13600000  0.00000000
H        H   H      11.82800000  23.46000000  21.76400000  0.00000000
