data_Movie_nu1000_modified_1.1.2_100.000000_0.000000_allcomponents

_cell_length_a  39.97000000
_cell_length_b  40.00000000
_cell_length_c  33.16000000
_cell_angle_alpha  90.00000000
_cell_angle_beta   90.00000000
_cell_angle_gamma  120.00000000


_symmetry_space_group_name_Hall ' P 1'
_symmetry_space_group_name_H-M  'P 1'
_symmetry_Int_Tables_number     1

loop_
_atom_site_label
_atom_site_type_symbol
_atom_site_forcefield_label
_atom_site_Cartn_x
_atom_site_Cartn_y
_atom_site_Cartn_z
_atom_site_charge
P        P   P      12.27700000  22.00000000  16.85800000  0.00000000
O        O   O      11.61400000  21.29600000  18.26800000  0.00000000
O        O   O      13.97600000  22.10300000  17.01700000  0.00000000
H        H   H      14.34800000  22.49700000  16.22500000  0.00000000
O        O   O      11.88900000  21.03300000  15.50200000  0.00000000
C        C   C      11.58600000  23.66900000  16.63100000  0.00000000
H        H   H      11.82900000  24.27300000  17.47900000  0.00000000
H        H   H      12.00200000  24.10900000  15.74800000  0.00000000
N        N   N      10.12600000  23.58100000  16.49400000  0.00000000
H        H   H      9.89900000  23.01500000  15.70100000  0.00000000
C        C   C      9.56900000  24.92800000  16.30900000  0.00000000
H        H   H      9.98300000  25.36900000  15.42700000  0.00000000
H        H   H      9.81100000  25.53300000  17.15800000  0.00000000
C        C   C      8.03800000  24.83500000  16.16700000  0.00000000
O        O   O      7.40700000  23.91100000  16.74200000  0.00000000
O        O   O      7.33400000  25.80000000  15.37900000  0.00000000
H        H   H      6.55000000  25.39400000  15.00200000  0.00000000
