data_Movie_nu1000_modified_1.1.2_100.000000_0.000000_allcomponents

_cell_length_a  39.97000000
_cell_length_b  40.00000000
_cell_length_c  33.16000000
_cell_angle_alpha  90.00000000
_cell_angle_beta   90.00000000
_cell_angle_gamma  120.00000000


_symmetry_space_group_name_Hall ' P 1'
_symmetry_space_group_name_H-M  'P 1'
_symmetry_Int_Tables_number     1

loop_
_atom_site_label
_atom_site_type_symbol
_atom_site_forcefield_label
_atom_site_Cartn_x
_atom_site_Cartn_y
_atom_site_Cartn_z
_atom_site_charge
P        P   P      12.60700000  21.85000000  16.57900000  0.00000000
O        O   O      11.87800000  21.24400000  18.00200000  0.00000000
O        O   O      14.30800000  21.80300000  16.74500000  0.00000000
H        H   H      14.71700000  22.14300000  15.94600000  0.00000000
O        O   O      12.13700000  20.88900000  15.24400000  0.00000000
C        C   C      12.07100000  23.56900000  16.30700000  0.00000000
H        H   H      12.36500000  24.17000000  17.14200000  0.00000000
H        H   H      12.52800000  23.94800000  15.41700000  0.00000000
N        N   N      10.60900000  23.61000000  16.16400000  0.00000000
H        H   H      10.33500000  23.04800000  15.38400000  0.00000000
C        C   C      10.17700000  24.99700000  15.94500000  0.00000000
H        H   H      10.63300000  25.37700000  15.05400000  0.00000000
H        H   H      10.47000000  25.59900000  16.78000000  0.00000000
C        C   C      8.64500000  25.04000000  15.79600000  0.00000000
O        O   O      7.93000000  24.19100000  16.38900000  0.00000000
O        O   O      8.03400000  26.04500000  14.98200000  0.00000000
H        H   H      7.21800000  25.70300000  14.61000000  0.00000000
