data_Movie_nu1000_modified_1.1.2_100.000000_0.000000_allcomponents

_cell_length_a  39.97000000
_cell_length_b  40.00000000
_cell_length_c  33.16000000
_cell_angle_alpha  90.00000000
_cell_angle_beta   90.00000000
_cell_angle_gamma  120.00000000


_symmetry_space_group_name_Hall ' P 1'
_symmetry_space_group_name_H-M  'P 1'
_symmetry_Int_Tables_number     1

loop_
_atom_site_label
_atom_site_type_symbol
_atom_site_forcefield_label
_atom_site_Cartn_x
_atom_site_Cartn_y
_atom_site_Cartn_z
_atom_site_charge
P        P   P      12.88600000  21.55800000  16.64600000  0.00000000
O        O   O      12.49600000  20.87000000  18.16200000  0.00000000
O        O   O      14.49400000  21.15000000  16.23100000  0.00000000
H        H   H      14.71200000  21.53600000  15.38000000  0.00000000
O        O   O      11.81900000  20.95200000  15.45400000  0.00000000
C        C   C      12.72500000  23.36900000  16.74100000  0.00000000
H        H   H      13.39200000  23.74700000  17.48600000  0.00000000
H        H   H      12.96900000  23.79900000  15.79100000  0.00000000
N        N   N      11.34300000  23.72000000  17.09700000  0.00000000
H        H   H      10.71900000  23.36500000  16.40000000  0.00000000
C        C   C      11.21200000  25.18100000  17.17300000  0.00000000
H        H   H      11.45600000  25.61200000  16.22400000  0.00000000
H        H   H      11.87900000  25.56100000  17.91900000  0.00000000
C        C   C      9.76400000  25.54900000  17.54700000  0.00000000
O        O   O      9.07900000  24.76700000  18.25700000  0.00000000
O        O   O      9.19700000  26.77900000  17.08700000  0.00000000
H        H   H      8.25000000  26.67200000  16.97600000  0.00000000
