data_Movie_nu1000_modified_1.1.2_100.000000_0.000000_allcomponents

_cell_length_a  39.97000000
_cell_length_b  40.00000000
_cell_length_c  33.16000000
_cell_angle_alpha  90.00000000
_cell_angle_beta   90.00000000
_cell_angle_gamma  120.00000000


_symmetry_space_group_name_Hall ' P 1'
_symmetry_space_group_name_H-M  'P 1'
_symmetry_Int_Tables_number     1

loop_
_atom_site_label
_atom_site_type_symbol
_atom_site_forcefield_label
_atom_site_Cartn_x
_atom_site_Cartn_y
_atom_site_Cartn_z
_atom_site_charge
P        P   P      12.50400000  21.84900000  16.50700000  0.00000000
O        O   O      11.78000000  21.17000000  17.90000000  0.00000000
O        O   O      14.20400000  21.85800000  16.69400000  0.00000000
H        H   H      14.60900000  22.23800000  15.91200000  0.00000000
O        O   O      12.08500000  20.91800000  15.13500000  0.00000000
C        C   C      11.91000000  23.55600000  16.28600000  0.00000000
H        H   H      12.17100000  24.13800000  17.14400000  0.00000000
H        H   H      12.36300000  23.98100000  15.41500000  0.00000000
N        N   N      10.44900000  23.54900000  16.12500000  0.00000000
H        H   H      10.20500000  23.00500000  15.32300000  0.00000000
C        C   C      9.96900000  24.92700000  15.94600000  0.00000000
H        H   H      10.42200000  25.35200000  15.07500000  0.00000000
H        H   H      10.23000000  25.51000000  16.80500000  0.00000000
C        C   C      8.43800000  24.92000000  15.77800000  0.00000000
O        O   O      7.74800000  24.02600000  16.33400000  0.00000000
O        O   O      7.80100000  25.92900000  14.99000000  0.00000000
H        H   H      7.00200000  25.57000000  14.59700000  0.00000000
