data_Movie_nu1000_modified_1.1.2_100.000000_0.000000_allcomponents

_cell_length_a  39.97000000
_cell_length_b  40.00000000
_cell_length_c  33.16000000
_cell_angle_alpha  90.00000000
_cell_angle_beta   90.00000000
_cell_angle_gamma  120.00000000


_symmetry_space_group_name_Hall ' P 1'
_symmetry_space_group_name_H-M  'P 1'
_symmetry_Int_Tables_number     1

loop_
_atom_site_label
_atom_site_type_symbol
_atom_site_forcefield_label
_atom_site_Cartn_x
_atom_site_Cartn_y
_atom_site_Cartn_z
_atom_site_charge
P        P   P      13.84200000  21.62900000  15.04900000  0.00000000
O        O   O      15.05400000  20.69200000  15.80900000  0.00000000
O        O   O      14.27200000  21.90300000  13.41700000  0.00000000
H        H   H      13.59200000  22.42800000  12.99100000  0.00000000
O        O   O      12.35100000  20.79300000  15.11300000  0.00000000
C        C   C      13.68000000  23.22500000  15.91000000  0.00000000
H        H   H      14.61200000  23.74800000  15.87000000  0.00000000
H        H   H      12.92100000  23.81200000  15.43300000  0.00000000
N        N   N      13.30900000  22.99000000  17.31200000  0.00000000
H        H   H      12.43800000  22.50200000  17.34900000  0.00000000
C        C   C      13.17800000  24.27900000  18.00700000  0.00000000
H        H   H      12.41900000  24.86500000  17.53200000  0.00000000
H        H   H      14.11100000  24.80200000  17.96800000  0.00000000
C        C   C      12.79100000  24.03300000  19.47700000  0.00000000
O        O   O      13.16400000  22.98100000  20.05900000  0.00000000
O        O   O      12.00500000  24.99900000  20.18100000  0.00000000
H        H   H      11.47200000  24.55500000  20.84400000  0.00000000
