data_Movie_nu1000_modified_1.1.2_100.000000_0.000000_allcomponents

_cell_length_a  39.97000000
_cell_length_b  40.00000000
_cell_length_c  33.16000000
_cell_angle_alpha  90.00000000
_cell_angle_beta   90.00000000
_cell_angle_gamma  120.00000000


_symmetry_space_group_name_Hall ' P 1'
_symmetry_space_group_name_H-M  'P 1'
_symmetry_Int_Tables_number     1

loop_
_atom_site_label
_atom_site_type_symbol
_atom_site_forcefield_label
_atom_site_Cartn_x
_atom_site_Cartn_y
_atom_site_Cartn_z
_atom_site_charge
P        P   P      12.12700000  21.92300000  17.02800000  0.00000000
O        O   O      11.39800000  21.29200000  18.44000000  0.00000000
O        O   O      13.82700000  21.90200000  17.20400000  0.00000000
H        H   H      14.23600000  22.25600000  16.41100000  0.00000000
O        O   O      11.68200000  20.96700000  15.68100000  0.00000000
C        C   C      11.56500000  23.63600000  16.76800000  0.00000000
H        H   H      11.84400000  24.23300000  17.61000000  0.00000000
H        H   H      12.02100000  24.03000000  15.88400000  0.00000000
N        N   N      10.10400000  23.65400000  16.61600000  0.00000000
H        H   H      9.84400000  23.09500000  15.82900000  0.00000000
C        C   C      9.65000000  25.03600000  16.40600000  0.00000000
H        H   H      10.10600000  25.43100000  15.52200000  0.00000000
H        H   H      9.92800000  25.63500000  17.24900000  0.00000000
C        C   C      8.11800000  25.05600000  16.24700000  0.00000000
O        O   O      7.41400000  24.19000000  16.82800000  0.00000000
O        O   O      7.49600000  26.05800000  15.43800000  0.00000000
H        H   H      6.68800000  25.70600000  15.05800000  0.00000000
