data_Movie_nu1000_modified_1.1.2_100.000000_0.000000_allcomponents

_cell_length_a  39.97000000
_cell_length_b  40.00000000
_cell_length_c  33.16000000
_cell_angle_alpha  90.00000000
_cell_angle_beta   90.00000000
_cell_angle_gamma  120.00000000


_symmetry_space_group_name_Hall ' P 1'
_symmetry_space_group_name_H-M  'P 1'
_symmetry_Int_Tables_number     1

loop_
_atom_site_label
_atom_site_type_symbol
_atom_site_forcefield_label
_atom_site_Cartn_x
_atom_site_Cartn_y
_atom_site_Cartn_z
_atom_site_charge
P        P   P      12.55400000  21.95900000  16.38800000  0.00000000
O        O   O      11.99700000  21.12100000  17.77100000  0.00000000
O        O   O      14.25500000  22.11100000  16.46000000  0.00000000
H        H   H      14.56700000  22.58100000  15.68400000  0.00000000
O        O   O      12.11800000  21.09000000  14.98100000  0.00000000
C        C   C      11.79800000  23.61500000  16.33700000  0.00000000
H        H   H      12.07100000  24.15800000  17.21700000  0.00000000
H        H   H      12.14700000  24.13900000  15.47200000  0.00000000
N        N   N      10.33600000  23.48400000  16.27500000  0.00000000
H        H   H      10.08100000  22.97600000  15.45300000  0.00000000
C        C   C      9.72600000  24.82100000  16.23400000  0.00000000
H        H   H      10.07400000  25.34500000  15.36800000  0.00000000
H        H   H      9.99800000  25.36500000  17.11400000  0.00000000
C        C   C      8.19300000  24.68400000  16.17000000  0.00000000
O        O   O      7.62700000  23.69400000  16.70100000  0.00000000
O        O   O      7.41400000  25.68200000  15.50500000  0.00000000
H        H   H      6.62200000  25.27900000  15.14000000  0.00000000
