data_Movie_nu1000_modified_1.1.2_100.000000_0.000000_allcomponents

_cell_length_a  39.97000000
_cell_length_b  40.00000000
_cell_length_c  33.16000000
_cell_angle_alpha  90.00000000
_cell_angle_beta   90.00000000
_cell_angle_gamma  120.00000000


_symmetry_space_group_name_Hall ' P 1'
_symmetry_space_group_name_H-M  'P 1'
_symmetry_Int_Tables_number     1

loop_
_atom_site_label
_atom_site_type_symbol
_atom_site_forcefield_label
_atom_site_Cartn_x
_atom_site_Cartn_y
_atom_site_Cartn_z
_atom_site_charge
P        P   P      12.58300000  21.87000000  16.41600000  0.00000000
O        O   O      11.94100000  21.16600000  17.83700000  0.00000000
O        O   O      14.29100000  21.86700000  16.49900000  0.00000000
H        H   H      14.65000000  22.26100000  15.70200000  0.00000000
O        O   O      12.07600000  20.96800000  15.05400000  0.00000000
C        C   C      11.98600000  23.58300000  16.26500000  0.00000000
H        H   H      12.30300000  24.14700000  17.11600000  0.00000000
H        H   H      12.38800000  24.02400000  15.37600000  0.00000000
N        N   N      10.51800000  23.58700000  16.19300000  0.00000000
H        H   H      10.22300000  23.05900000  15.39700000  0.00000000
C        C   C      10.03700000  24.97000000  16.07000000  0.00000000
H        H   H      10.43800000  25.41000000  15.18100000  0.00000000
H        H   H      10.35300000  25.53400000  16.92300000  0.00000000
C        C   C      8.49800000  24.97300000  15.99600000  0.00000000
O        O   O      7.83800000  24.07200000  16.57500000  0.00000000
O        O   O      7.82000000  26.00000000  15.26800000  0.00000000
H        H   H      6.99700000  25.65300000  14.91700000  0.00000000
