data_Movie_nu1000_modified_1.1.2_100.000000_0.000000_allcomponents

_cell_length_a  39.97000000
_cell_length_b  40.00000000
_cell_length_c  33.16000000
_cell_angle_alpha  90.00000000
_cell_angle_beta   90.00000000
_cell_angle_gamma  120.00000000


_symmetry_space_group_name_Hall ' P 1'
_symmetry_space_group_name_H-M  'P 1'
_symmetry_Int_Tables_number     1

loop_
_atom_site_label
_atom_site_type_symbol
_atom_site_forcefield_label
_atom_site_Cartn_x
_atom_site_Cartn_y
_atom_site_Cartn_z
_atom_site_charge
P        P   P      13.80300000  21.61500000  14.77900000  0.00000000
O        O   O      14.99800000  20.48900000  15.25600000  0.00000000
O        O   O      14.15900000  22.19600000  13.21100000  0.00000000
H        H   H      13.48800000  22.82700000  12.94400000  0.00000000
O        O   O      12.27200000  20.85200000  14.77000000  0.00000000
C        C   C      13.78000000  23.00800000  15.95100000  0.00000000
H        H   H      14.73700000  23.48500000  15.95600000  0.00000000
H        H   H      13.03200000  23.71300000  15.65200000  0.00000000
N        N   N      13.47400000  22.50900000  17.29900000  0.00000000
H        H   H      12.57900000  22.06300000  17.29400000  0.00000000
C        C   C      13.45400000  23.63400000  18.24500000  0.00000000
H        H   H      12.70600000  24.33800000  17.94700000  0.00000000
H        H   H      14.41200000  24.11100000  18.25100000  0.00000000
C        C   C      13.13400000  23.11100000  19.65800000  0.00000000
O        O   O      13.47700000  21.94700000  19.99200000  0.00000000
O        O   O      12.44500000  23.94800000  20.59100000  0.00000000
H        H   H      11.92400000  23.40300000  21.18500000  0.00000000
