data_Movie_nu1000_modified_1.1.2_100.000000_0.000000_allcomponents

_cell_length_a  39.97000000
_cell_length_b  40.00000000
_cell_length_c  33.16000000
_cell_angle_alpha  90.00000000
_cell_angle_beta   90.00000000
_cell_angle_gamma  120.00000000


_symmetry_space_group_name_Hall ' P 1'
_symmetry_space_group_name_H-M  'P 1'
_symmetry_Int_Tables_number     1

loop_
_atom_site_label
_atom_site_type_symbol
_atom_site_forcefield_label
_atom_site_Cartn_x
_atom_site_Cartn_y
_atom_site_Cartn_z
_atom_site_charge
P        P   P      12.35900000  21.98800000  16.55600000  0.00000000
O        O   O      11.82100000  21.22200000  17.98800000  0.00000000
O        O   O      14.06000000  22.15400000  16.60200000  0.00000000
H        H   H      14.36100000  22.58300000  15.79800000  0.00000000
O        O   O      11.91400000  21.04200000  15.20300000  0.00000000
C        C   C      11.59200000  23.63400000  16.42400000  0.00000000
H        H   H      11.87000000  24.22500000  17.27100000  0.00000000
H        H   H      11.92900000  24.11300000  15.52800000  0.00000000
N        N   N      10.13000000  23.49200000  16.38500000  0.00000000
H        H   H      9.87000000  22.93900000  15.59400000  0.00000000
C        C   C      9.51100000  24.82100000  16.27800000  0.00000000
H        H   H      9.84700000  25.30000000  15.38200000  0.00000000
H        H   H      9.78800000  25.41300000  17.12500000  0.00000000
C        C   C      7.97900000  24.67200000  16.23700000  0.00000000
O        O   O      7.42400000  23.70900000  16.82700000  0.00000000
O        O   O      7.18600000  25.62800000  15.52700000  0.00000000
H        H   H      6.39400000  25.20200000  15.19300000  0.00000000
