data_Movie_nu1000_modified_1.1.2_100.000000_0.000000_allcomponents

_cell_length_a  39.97000000
_cell_length_b  40.00000000
_cell_length_c  33.16000000
_cell_angle_alpha  90.00000000
_cell_angle_beta   90.00000000
_cell_angle_gamma  120.00000000


_symmetry_space_group_name_Hall ' P 1'
_symmetry_space_group_name_H-M  'P 1'
_symmetry_Int_Tables_number     1

loop_
_atom_site_label
_atom_site_type_symbol
_atom_site_forcefield_label
_atom_site_Cartn_x
_atom_site_Cartn_y
_atom_site_Cartn_z
_atom_site_charge
P        P   P      12.39900000  21.92600000  16.40800000  0.00000000
O        O   O      11.54600000  21.29800000  17.75100000  0.00000000
O        O   O      14.08100000  21.76800000  16.67600000  0.00000000
H        H   H      14.55900000  22.12000000  15.92200000  0.00000000
O        O   O      11.96200000  21.05900000  15.00000000  0.00000000
C        C   C      11.98100000  23.68500000  16.19200000  0.00000000
H        H   H      12.25500000  24.22600000  17.07300000  0.00000000
H        H   H      12.51500000  24.07700000  15.35100000  0.00000000
N        N   N      10.53600000  23.82000000  15.96200000  0.00000000
H        H   H      10.28100000  23.31300000  15.13800000  0.00000000
C        C   C      10.19900000  25.24000000  15.78600000  0.00000000
H        H   H      10.73200000  25.63300000  14.94600000  0.00000000
H        H   H      10.47200000  25.78300000  16.66800000  0.00000000
C        C   C      8.68400000  25.38200000  15.54600000  0.00000000
O        O   O      7.88600000  24.55100000  16.05000000  0.00000000
O        O   O      8.18600000  26.45900000  14.74800000  0.00000000
H        H   H      7.37700000  26.18400000  14.31000000  0.00000000
