data_Movie_nu1000_modified_1.1.2_100.000000_0.000000_allcomponents

_cell_length_a  39.97000000
_cell_length_b  40.00000000
_cell_length_c  33.16000000
_cell_angle_alpha  90.00000000
_cell_angle_beta   90.00000000
_cell_angle_gamma  120.00000000


_symmetry_space_group_name_Hall ' P 1'
_symmetry_space_group_name_H-M  'P 1'
_symmetry_Int_Tables_number     1

loop_
_atom_site_label
_atom_site_type_symbol
_atom_site_forcefield_label
_atom_site_Cartn_x
_atom_site_Cartn_y
_atom_site_Cartn_z
_atom_site_charge
P        P   P      13.82100000  21.57100000  15.07500000  0.00000000
O        O   O      14.94300000  20.40900000  15.63700000  0.00000000
O        O   O      14.29000000  22.11200000  13.52200000  0.00000000
H        H   H      13.65900000  22.76300000  13.20700000  0.00000000
O        O   O      12.26600000  20.86400000  14.98700000  0.00000000
C        C   C      13.78200000  22.98200000  16.22400000  0.00000000
H        H   H      14.75400000  23.42400000  16.27900000  0.00000000
H        H   H      13.07900000  23.70900000  15.87200000  0.00000000
N        N   N      13.37800000  22.51700000  17.55800000  0.00000000
H        H   H      12.46900000  22.10400000  17.50700000  0.00000000
C        C   C      13.34600000  23.65700000  18.48600000  0.00000000
H        H   H      12.64400000  24.38300000  18.13400000  0.00000000
H        H   H      14.31900000  24.09900000  18.54200000  0.00000000
C        C   C      12.92400000  23.16900000  19.88400000  0.00000000
O        O   O      13.20400000  21.99900000  20.25400000  0.00000000
O        O   O      12.21400000  24.04600000  20.76300000  0.00000000
H        H   H      11.63900000  23.53000000  21.33300000  0.00000000
