data_Movie_nu1000_modified_1.1.2_100.000000_0.000000_allcomponents

_cell_length_a  39.97000000
_cell_length_b  40.00000000
_cell_length_c  33.16000000
_cell_angle_alpha  90.00000000
_cell_angle_beta   90.00000000
_cell_angle_gamma  120.00000000


_symmetry_space_group_name_Hall ' P 1'
_symmetry_space_group_name_H-M  'P 1'
_symmetry_Int_Tables_number     1

loop_
_atom_site_label
_atom_site_type_symbol
_atom_site_forcefield_label
_atom_site_Cartn_x
_atom_site_Cartn_y
_atom_site_Cartn_z
_atom_site_charge
P        P   P      13.54600000  21.78800000  15.46100000  0.00000000
O        O   O      13.65500000  21.21400000  17.06800000  0.00000000
O        O   O      15.06700000  21.63700000  14.69600000  0.00000000
H        H   H      15.00500000  21.95900000  13.79400000  0.00000000
O        O   O      12.38300000  20.87000000  14.60500000  0.00000000
C        C   C      13.04500000  23.53900000  15.47500000  0.00000000
H        H   H      13.77200000  24.11300000  16.01000000  0.00000000
H        H   H      12.97600000  23.89800000  14.46900000  0.00000000
N        N   N      11.73700000  23.66900000  16.13200000  0.00000000
H        H   H      11.05800000  23.13200000  15.63200000  0.00000000
C        C   C      11.33200000  25.08200000  16.14300000  0.00000000
H        H   H      11.26300000  25.44100000  15.13800000  0.00000000
H        H   H      12.05900000  25.65700000  16.67900000  0.00000000
C        C   C      9.96200000  25.21800000  16.83300000  0.00000000
O        O   O      9.62800000  24.40800000  17.73600000  0.00000000
O        O   O      9.06800000  26.26600000  16.44600000  0.00000000
H        H   H      8.16200000  25.97700000  16.57500000  0.00000000
