data_Movie_nu1000_modified_1.1.2_100.000000_0.000000_allcomponents

_cell_length_a  39.97000000
_cell_length_b  40.00000000
_cell_length_c  33.16000000
_cell_angle_alpha  90.00000000
_cell_angle_beta   90.00000000
_cell_angle_gamma  120.00000000


_symmetry_space_group_name_Hall ' P 1'
_symmetry_space_group_name_H-M  'P 1'
_symmetry_Int_Tables_number     1

loop_
_atom_site_label
_atom_site_type_symbol
_atom_site_forcefield_label
_atom_site_Cartn_x
_atom_site_Cartn_y
_atom_site_Cartn_z
_atom_site_charge
P        P   P      12.58700000  21.87500000  16.39200000  0.00000000
O        O   O      11.90500000  21.18000000  17.79800000  0.00000000
O        O   O      14.29200000  21.85800000  16.51600000  0.00000000
H        H   H      14.67400000  22.24800000  15.72600000  0.00000000
O        O   O      12.10600000  20.97200000  15.02000000  0.00000000
C        C   C      12.00700000  23.59200000  16.22100000  0.00000000
H        H   H      12.30800000  24.15600000  17.07900000  0.00000000
H        H   H      12.43400000  24.02700000  15.34100000  0.00000000
N        N   N      10.54100000  23.60700000  16.11500000  0.00000000
H        H   H      10.26100000  23.07900000  15.31300000  0.00000000
C        C   C      10.07400000  24.99300000  15.97700000  0.00000000
H        H   H      10.49900000  25.42800000  15.09600000  0.00000000
H        H   H      10.37400000  25.55800000  16.83500000  0.00000000
C        C   C      8.53800000  25.00800000  15.86500000  0.00000000
O        O   O      7.85700000  24.11400000  16.43100000  0.00000000
O        O   O      7.88500000  26.03900000  15.11900000  0.00000000
H        H   H      7.06800000  25.69700000  14.74900000  0.00000000
