data_Movie_nu1000_modified_1.1.2_100.000000_0.000000_allcomponents

_cell_length_a  39.97000000
_cell_length_b  40.00000000
_cell_length_c  33.16000000
_cell_angle_alpha  90.00000000
_cell_angle_beta   90.00000000
_cell_angle_gamma  120.00000000


_symmetry_space_group_name_Hall ' P 1'
_symmetry_space_group_name_H-M  'P 1'
_symmetry_Int_Tables_number     1

loop_
_atom_site_label
_atom_site_type_symbol
_atom_site_forcefield_label
_atom_site_Cartn_x
_atom_site_Cartn_y
_atom_site_Cartn_z
_atom_site_charge
P        P   P      12.47900000  21.88200000  16.46500000  0.00000000
O        O   O      11.81900000  21.14900000  17.86200000  0.00000000
O        O   O      14.18400000  21.91500000  16.58900000  0.00000000
H        H   H      14.55400000  22.32600000  15.80500000  0.00000000
O        O   O      12.02400000  20.98500000  15.08200000  0.00000000
C        C   C      11.84900000  23.58400000  16.31900000  0.00000000
H        H   H      12.13300000  24.14500000  17.18400000  0.00000000
H        H   H      12.26200000  24.04300000  15.44500000  0.00000000
N        N   N      10.38400000  23.55700000  16.21200000  0.00000000
H        H   H      10.11800000  23.03300000  15.40400000  0.00000000
C        C   C      9.87500000  24.93100000  16.09400000  0.00000000
H        H   H      10.28700000  25.39000000  15.21900000  0.00000000
H        H   H      10.15900000  25.49200000  16.96000000  0.00000000
C        C   C      8.33900000  24.90200000  15.98300000  0.00000000
O        O   O      7.68500000  23.98000000  16.53600000  0.00000000
O        O   O      7.65600000  25.92300000  15.25000000  0.00000000
H        H   H      6.84900000  25.56300000  14.87600000  0.00000000
