data_Movie_nu1000_modified_1.1.2_100.000000_0.000000_allcomponents

_cell_length_a  39.97000000
_cell_length_b  40.00000000
_cell_length_c  33.16000000
_cell_angle_alpha  90.00000000
_cell_angle_beta   90.00000000
_cell_angle_gamma  120.00000000


_symmetry_space_group_name_Hall ' P 1'
_symmetry_space_group_name_H-M  'P 1'
_symmetry_Int_Tables_number     1

loop_
_atom_site_label
_atom_site_type_symbol
_atom_site_forcefield_label
_atom_site_Cartn_x
_atom_site_Cartn_y
_atom_site_Cartn_z
_atom_site_charge
P        P   P      12.56700000  21.83500000  16.61500000  0.00000000
O        O   O      11.87500000  21.17900000  18.03500000  0.00000000
O        O   O      14.27200000  21.76500000  16.72600000  0.00000000
H        H   H      14.65900000  22.13200000  15.92900000  0.00000000
O        O   O      12.04600000  20.93400000  15.25800000  0.00000000
C        C   C      12.04200000  23.56900000  16.42900000  0.00000000
H        H   H      12.36800000  24.13200000  17.27800000  0.00000000
H        H   H      12.47500000  23.97900000  15.54100000  0.00000000
N        N   N      10.57700000  23.63000000  16.33400000  0.00000000
H        H   H      10.27300000  23.10300000  15.54100000  0.00000000
C        C   C      10.15400000  25.02900000  16.18400000  0.00000000
H        H   H      10.58600000  25.44000000  15.29500000  0.00000000
H        H   H      10.47900000  25.59300000  17.03300000  0.00000000
C        C   C      8.61800000  25.09300000  16.08400000  0.00000000
O        O   O      7.91300000  24.22800000  16.66500000  0.00000000
O        O   O      7.99300000  26.13600000  15.33100000  0.00000000
H        H   H      7.16200000  25.81700000  14.97100000  0.00000000
