data_Movie_nu1000_modified_1.1.2_100.000000_0.000000_allcomponents

_cell_length_a  39.97000000
_cell_length_b  40.00000000
_cell_length_c  33.16000000
_cell_angle_alpha  90.00000000
_cell_angle_beta   90.00000000
_cell_angle_gamma  120.00000000


_symmetry_space_group_name_Hall ' P 1'
_symmetry_space_group_name_H-M  'P 1'
_symmetry_Int_Tables_number     1

loop_
_atom_site_label
_atom_site_type_symbol
_atom_site_forcefield_label
_atom_site_Cartn_x
_atom_site_Cartn_y
_atom_site_Cartn_z
_atom_site_charge
P        P   P      13.28600000  21.83400000  15.51500000  0.00000000
O        O   O      14.56200000  20.85800000  16.10100000  0.00000000
O        O   O      13.62400000  22.31200000  13.90900000  0.00000000
H        H   H      12.90700000  22.85900000  13.58000000  0.00000000
O        O   O      11.82600000  20.94300000  15.55000000  0.00000000
C        C   C      13.12000000  23.31200000  16.56600000  0.00000000
H        H   H      14.03300000  23.86800000  16.54400000  0.00000000
H        H   H      12.32100000  23.92200000  16.19900000  0.00000000
N        N   N      12.82900000  22.90100000  17.94700000  0.00000000
H        H   H      11.97600000  22.38100000  17.96700000  0.00000000
C        C   C      12.69500000  24.09400000  18.79400000  0.00000000
H        H   H      11.89600000  24.70400000  18.42800000  0.00000000
H        H   H      13.60900000  24.65100000  18.77300000  0.00000000
C        C   C      12.39100000  23.66400000  20.24200000  0.00000000
O        O   O      12.82600000  22.56600000  20.67600000  0.00000000
O        O   O      11.61400000  24.51300000  21.09100000  0.00000000
H        H   H      11.12900000  23.97600000  21.72200000  0.00000000
