data_Movie_nu1000_modified_1.1.2_100.000000_0.000000_allcomponents

_cell_length_a  39.97000000
_cell_length_b  40.00000000
_cell_length_c  33.16000000
_cell_angle_alpha  90.00000000
_cell_angle_beta   90.00000000
_cell_angle_gamma  120.00000000


_symmetry_space_group_name_Hall ' P 1'
_symmetry_space_group_name_H-M  'P 1'
_symmetry_Int_Tables_number     1

loop_
_atom_site_label
_atom_site_type_symbol
_atom_site_forcefield_label
_atom_site_Cartn_x
_atom_site_Cartn_y
_atom_site_Cartn_z
_atom_site_charge
P        P   P      12.00900000  22.94800000  1.45600000  0.00000000
O        O   O      11.22300000  23.57800000  0.07400000  0.00000000
H        H   H      11.47000000  23.06300000 -0.69700000  0.00000000
O        O   O      11.57000000  23.86600000  2.83000000  0.00000000
H        H   H      12.01100000  23.51200000  3.60500000  0.00000000
O        O   O      11.54100000  21.31900000  1.68500000  0.00000000
C        C   C      13.81200000  23.03400000  1.21900000  0.00000000
H        H   H      14.10500000  24.05300000  1.07600000  0.00000000
H        H   H      14.30400000  22.64000000  2.08500000  0.00000000
N        N   N      14.19000000  22.24500000  0.03800000  0.00000000
H        H   H      13.91600000  21.29300000  0.17200000  0.00000000
C        C   C      15.64600000  22.31400000 -0.15200000  0.00000000
H        H   H      16.13800000  21.92000000  0.71200000  0.00000000
H        H   H      15.93900000  23.33300000 -0.29600000  0.00000000
C        C   C      16.04100000  21.48800000 -1.39000000  0.00000000
O        O   O      15.23500000  21.36400000 -2.34800000  0.00000000
O        O   O      17.32500000  20.86000000 -1.45000000  0.00000000
H        H   H      17.26600000  20.06100000 -1.97900000  0.00000000
