data_Movie_nu1000_modified_1.1.2_100.000000_0.000000_allcomponents

_cell_length_a  39.97000000
_cell_length_b  40.00000000
_cell_length_c  33.16000000
_cell_angle_alpha  90.00000000
_cell_angle_beta   90.00000000
_cell_angle_gamma  120.00000000


_symmetry_space_group_name_Hall ' P 1'
_symmetry_space_group_name_H-M  'P 1'
_symmetry_Int_Tables_number     1

loop_
_atom_site_label
_atom_site_type_symbol
_atom_site_forcefield_label
_atom_site_Cartn_x
_atom_site_Cartn_y
_atom_site_Cartn_z
_atom_site_charge
P        P   P      12.02500000  22.95600000  1.82200000  0.00000000
O        O   O      11.67500000  23.65600000  0.30200000  0.00000000
H        H   H      12.14900000  23.18100000 -0.38500000  0.00000000
O        O   O      11.18400000  23.80200000  3.04700000  0.00000000
H        H   H      11.38100000  23.40900000  3.90000000  0.00000000
O        O   O      11.53500000  21.31800000  1.82200000  0.00000000
C        C   C      13.81600000  23.05400000  2.13700000  0.00000000
H        H   H      14.12200000  24.07900000  2.13800000  0.00000000
H        H   H      14.03500000  22.61600000  3.08900000  0.00000000
N        N   N      14.53900000  22.32700000  1.08500000  0.00000000
H        H   H      14.25300000  21.36900000  1.08500000  0.00000000
C        C   C      15.98500000  22.40500000  1.34000000  0.00000000
H        H   H      16.20400000  21.96700000  2.29100000  0.00000000
H        H   H      16.29200000  23.43100000  1.34000000  0.00000000
C        C   C      16.74300000  21.64400000  0.23700000  0.00000000
O        O   O      16.25900000  21.56900000 -0.92300000  0.00000000
O        O   O      17.99600000  21.02000000  0.53000000  0.00000000
H        H   H      18.10800000  20.24900000 -0.03100000  0.00000000
