data_Movie_nu1000_modified_1.1.2_100.000000_0.000000_allcomponents

_cell_length_a  39.97000000
_cell_length_b  40.00000000
_cell_length_c  33.16000000
_cell_angle_alpha  90.00000000
_cell_angle_beta   90.00000000
_cell_angle_gamma  120.00000000


_symmetry_space_group_name_Hall ' P 1'
_symmetry_space_group_name_H-M  'P 1'
_symmetry_Int_Tables_number     1

loop_
_atom_site_label
_atom_site_type_symbol
_atom_site_forcefield_label
_atom_site_Cartn_x
_atom_site_Cartn_y
_atom_site_Cartn_z
_atom_site_charge
P        P   P      11.61600000  23.62500000  3.15900000  0.00000000
O        O   O      11.68200000  24.51200000  1.69800000  0.00000000
H        H   H      12.35100000  24.13200000  1.12400000  0.00000000
O        O   O      10.42500000  24.30200000  4.18300000  0.00000000
H        H   H      10.38800000  23.80300000  5.00200000  0.00000000
O        O   O      11.21800000  21.99700000  2.81900000  0.00000000
C        C   C      13.23700000  23.69400000  3.98400000  0.00000000
H        H   H      13.48500000  24.71300000  4.19600000  0.00000000
H        H   H      13.19500000  23.13900000  4.89900000  0.00000000
N        N   N      14.26000000  23.11300000  3.10400000  0.00000000
H        H   H      14.02700000  22.16100000  2.90600000  0.00000000
C        C   C      15.56900000  23.16800000  3.77100000  0.00000000
H        H   H      15.52800000  22.61300000  4.68500000  0.00000000
H        H   H      15.81800000  24.18700000  3.98300000  0.00000000
C        C   C      16.64100000  22.56000000  2.84900000  0.00000000
O        O   O      16.51100000  22.63100000  1.59900000  0.00000000
O        O   O      17.78500000  21.91200000  3.41200000  0.00000000
H        H   H      18.08600000  21.22000000  2.81900000  0.00000000
