data_Movie_nu1000_modified_1.1.2_100.000000_0.000000_allcomponents

_cell_length_a  39.97000000
_cell_length_b  40.00000000
_cell_length_c  33.16000000
_cell_angle_alpha  90.00000000
_cell_angle_beta   90.00000000
_cell_angle_gamma  120.00000000


_symmetry_space_group_name_Hall ' P 1'
_symmetry_space_group_name_H-M  'P 1'
_symmetry_Int_Tables_number     1

loop_
_atom_site_label
_atom_site_type_symbol
_atom_site_forcefield_label
_atom_site_Cartn_x
_atom_site_Cartn_y
_atom_site_Cartn_z
_atom_site_charge
P        P   P      12.00600000  22.94800000  1.46900000  0.00000000
O        O   O      11.46600000  23.63100000 -0.00200000  0.00000000
H        H   H      11.80100000  23.11300000 -0.73700000  0.00000000
O        O   O      11.41000000  23.87100000  2.77900000  0.00000000
H        H   H      11.71300000  23.48700000  3.60500000  0.00000000
O        O   O      11.43300000  21.34100000  1.59600000  0.00000000
C        C   C      13.82600000  22.94800000  1.50600000  0.00000000
H        H   H      14.18400000  23.95300000  1.42600000  0.00000000
H        H   H      14.16400000  22.52100000  2.42700000  0.00000000
N        N   N      14.33900000  22.15500000  0.38000000  0.00000000
H        H   H      14.00400000  21.21600000  0.45400000  0.00000000
C        C   C      15.80800000  22.15400000  0.41000000  0.00000000
H        H   H      16.14700000  21.72600000  1.33000000  0.00000000
H        H   H      16.16700000  23.15900000  0.32900000  0.00000000
C        C   C      16.34500000  21.32300000 -0.77100000  0.00000000
O        O   O      15.68700000  21.25000000 -1.84000000  0.00000000
O        O   O      17.59300000  20.63400000 -0.65000000  0.00000000
H        H   H      17.57600000  19.84400000 -1.19700000  0.00000000
