data_Movie_nu1000_modified_1.1.2_100.000000_0.000000_allcomponents

_cell_length_a  39.97000000
_cell_length_b  40.00000000
_cell_length_c  33.16000000
_cell_angle_alpha  90.00000000
_cell_angle_beta   90.00000000
_cell_angle_gamma  120.00000000


_symmetry_space_group_name_Hall ' P 1'
_symmetry_space_group_name_H-M  'P 1'
_symmetry_Int_Tables_number     1

loop_
_atom_site_label
_atom_site_type_symbol
_atom_site_forcefield_label
_atom_site_Cartn_x
_atom_site_Cartn_y
_atom_site_Cartn_z
_atom_site_charge
P        P   P      12.02000000  22.93700000  1.38600000  0.00000000
O        O   O      11.39200000  23.61100000 -0.05600000  0.00000000
H        H   H      11.67300000  23.08100000 -0.80500000  0.00000000
O        O   O      11.52100000  23.88100000  2.72100000  0.00000000
H        H   H      11.87300000  23.50200000  3.53000000  0.00000000
O        O   O      11.43900000  21.33900000  1.56800000  0.00000000
C        C   C      13.83900000  22.91600000  1.30300000  0.00000000
H        H   H      14.20100000  23.91600000  1.18900000  0.00000000
H        H   H      14.23100000  22.49500000  2.20500000  0.00000000
N        N   N      14.26800000  22.10500000  0.15500000  0.00000000
H        H   H      13.92800000  21.17100000  0.26200000  0.00000000
C        C   C      15.73600000  22.08800000  0.08900000  0.00000000
H        H   H      16.12900000  21.66600000  0.99100000  0.00000000
H        H   H      16.10000000  23.08800000 -0.02500000  0.00000000
C        C   C      16.18600000  21.23800000 -1.11400000  0.00000000
O        O   O      15.45800000  21.16200000 -2.13800000  0.00000000
O        O   O      17.43100000  20.53600000 -1.06800000  0.00000000
H        H   H      17.37000000  19.74100000 -1.60300000  0.00000000
