data_Movie_nu1000_modified_1.1.2_100.000000_0.000000_allcomponents

_cell_length_a  39.97000000
_cell_length_b  40.00000000
_cell_length_c  33.16000000
_cell_angle_alpha  90.00000000
_cell_angle_beta   90.00000000
_cell_angle_gamma  120.00000000


_symmetry_space_group_name_Hall ' P 1'
_symmetry_space_group_name_H-M  'P 1'
_symmetry_Int_Tables_number     1

loop_
_atom_site_label
_atom_site_type_symbol
_atom_site_forcefield_label
_atom_site_Cartn_x
_atom_site_Cartn_y
_atom_site_Cartn_z
_atom_site_charge
P        P   P      12.00900000  22.94800000  1.60900000  0.00000000
O        O   O      11.31500000  23.62600000  0.20000000  0.00000000
H        H   H      11.57600000  23.11000000 -0.56500000  0.00000000
O        O   O      11.54500000  23.86800000  2.97300000  0.00000000
H        H   H      11.93500000  23.48700000  3.76300000  0.00000000
O        O   O      11.46400000  21.33800000  1.79400000  0.00000000
C        C   C      13.82400000  22.96100000  1.45700000  0.00000000
H        H   H      14.16400000  23.96800000  1.34100000  0.00000000
H        H   H      14.25800000  22.53700000  2.33800000  0.00000000
N        N   N      14.22300000  22.17100000  0.28400000  0.00000000
H        H   H      13.90400000  21.22900000  0.39300000  0.00000000
C        C   C      15.68700000  22.18000000  0.16200000  0.00000000
H        H   H      16.12200000  21.75600000  1.04300000  0.00000000
H        H   H      16.02900000  23.18800000  0.04500000  0.00000000
C        C   C      16.10600000  21.35200000 -1.06800000  0.00000000
O        O   O      15.34100000  21.27400000 -2.06400000  0.00000000
O        O   O      17.36400000  20.67200000 -1.07700000  0.00000000
H        H   H      17.29600000  19.88300000 -1.61800000  0.00000000
