data_Movie_nu1000_modified_1.1.2_100.000000_0.000000_allcomponents

_cell_length_a  39.97000000
_cell_length_b  40.00000000
_cell_length_c  33.16000000
_cell_angle_alpha  90.00000000
_cell_angle_beta   90.00000000
_cell_angle_gamma  120.00000000


_symmetry_space_group_name_Hall ' P 1'
_symmetry_space_group_name_H-M  'P 1'
_symmetry_Int_Tables_number     1

loop_
_atom_site_label
_atom_site_type_symbol
_atom_site_forcefield_label
_atom_site_Cartn_x
_atom_site_Cartn_y
_atom_site_Cartn_z
_atom_site_charge
P        P   P      12.01700000  22.95600000  1.63200000  0.00000000
O        O   O      11.32900000  23.68700000  0.24700000  0.00000000
H        H   H      11.59400000  23.20100000 -0.53600000  0.00000000
O        O   O      11.54700000  23.82300000  3.02800000  0.00000000
H        H   H      11.93300000  23.41200000  3.80500000  0.00000000
O        O   O      11.47100000  21.34000000  1.75300000  0.00000000
C        C   C      13.83200000  22.97500000  1.48800000  0.00000000
H        H   H      14.17300000  23.98600000  1.41200000  0.00000000
H        H   H      14.26300000  22.51700000  2.35500000  0.00000000
N        N   N      14.23700000  22.22900000  0.28800000  0.00000000
H        H   H      13.91700000  21.28500000  0.35900000  0.00000000
C        C   C      15.70200000  22.24400000  0.17300000  0.00000000
H        H   H      16.13300000  21.78600000  1.03900000  0.00000000
H        H   H      16.04400000  23.25500000  0.09600000  0.00000000
C        C   C      16.12500000  21.46300000 -1.08500000  0.00000000
O        O   O      15.36500000  21.42200000 -2.08700000  0.00000000
O        O   O      17.38400000  20.78400000 -1.11500000  0.00000000
H        H   H      17.31800000  20.01500000 -1.68700000  0.00000000
