data_Movie_nu1000_modified_1.1.2_100.000000_0.000000_allcomponents

_cell_length_a  39.97000000
_cell_length_b  40.00000000
_cell_length_c  33.16000000
_cell_angle_alpha  90.00000000
_cell_angle_beta   90.00000000
_cell_angle_gamma  120.00000000


_symmetry_space_group_name_Hall ' P 1'
_symmetry_space_group_name_H-M  'P 1'
_symmetry_Int_Tables_number     1

loop_
_atom_site_label
_atom_site_type_symbol
_atom_site_forcefield_label
_atom_site_Cartn_x
_atom_site_Cartn_y
_atom_site_Cartn_z
_atom_site_charge
P        P   P      12.02500000  22.95600000  1.60200000  0.00000000
O        O   O      11.35400000  23.68700000  0.20900000  0.00000000
H        H   H      11.62900000  23.20100000 -0.57100000  0.00000000
O        O   O      11.53800000  23.82300000  2.99200000  0.00000000
H        H   H      11.91500000  23.41200000  3.77400000  0.00000000
O        O   O      11.47800000  21.34000000  1.71700000  0.00000000
C        C   C      13.84200000  22.97500000  1.48100000  0.00000000
H        H   H      14.18400000  23.98600000  1.40900000  0.00000000
H        H   H      14.26200000  22.51700000  2.35300000  0.00000000
N        N   N      14.26100000  22.22900000  0.28600000  0.00000000
H        H   H      13.94100000  21.28500000  0.35300000  0.00000000
C        C   C      15.72700000  22.24400000  0.18800000  0.00000000
H        H   H      16.14800000  21.78600000  1.05900000  0.00000000
H        H   H      16.07000000  23.25500000  0.11600000  0.00000000
C        C   C      16.16700000  21.46300000 -1.06500000  0.00000000
O        O   O      15.41800000  21.42200000 -2.07500000  0.00000000
O        O   O      17.42500000  20.78400000 -1.07900000  0.00000000
H        H   H      17.36700000  20.01500000 -1.65100000  0.00000000
