data_Movie_nu1000_modified_1.1.2_100.000000_0.000000_allcomponents

_cell_length_a  39.97000000
_cell_length_b  40.00000000
_cell_length_c  33.16000000
_cell_angle_alpha  90.00000000
_cell_angle_beta   90.00000000
_cell_angle_gamma  120.00000000


_symmetry_space_group_name_Hall ' P 1'
_symmetry_space_group_name_H-M  'P 1'
_symmetry_Int_Tables_number     1

loop_
_atom_site_label
_atom_site_type_symbol
_atom_site_forcefield_label
_atom_site_Cartn_x
_atom_site_Cartn_y
_atom_site_Cartn_z
_atom_site_charge
P        P   P      20.82000000  9.40500000  9.95800000  0.00000000
O        O   O      21.98700000  10.49600000  9.34700000  0.00000000
H        H   H      21.80700000  11.37700000  9.68200000  0.00000000
O        O   O      21.13900000  7.83500000  9.36100000  0.00000000
H        H   H      20.48400000  7.22400000  9.70500000  0.00000000
O        O   O      20.89400000  9.39100000  11.66700000  0.00000000
C        C   C      19.16000000  9.93200000  9.42700000  0.00000000
H        H   H      19.11500000  9.94000000  8.35800000  0.00000000
H        H   H      18.43000000  9.24900000  9.81000000  0.00000000
N        N   N      18.88600000  11.28100000  9.94000000  0.00000000
H        H   H      18.93000000  11.27300000  10.93900000  0.00000000
C        C   C      17.54600000  11.70600000  9.51200000  0.00000000
H        H   H      16.81600000  11.02400000  9.89500000  0.00000000
H        H   H      17.50000000  11.71500000  8.44300000  0.00000000
C        C   C      17.25900000  13.12000000  10.04900000  0.00000000
O        O   O      18.20600000  13.93100000  10.22500000  0.00000000
O        O   O      15.91700000  13.51200000  10.34900000  0.00000000
H        H   H      15.92300000  14.15600000  11.06100000  0.00000000
