data_Movie_nu1000_modified_1.1.2_100.000000_0.000000_allcomponents

_cell_length_a  39.97000000
_cell_length_b  40.00000000
_cell_length_c  33.16000000
_cell_angle_alpha  90.00000000
_cell_angle_beta   90.00000000
_cell_angle_gamma  120.00000000


_symmetry_space_group_name_Hall ' P 1'
_symmetry_space_group_name_H-M  'P 1'
_symmetry_Int_Tables_number     1

loop_
_atom_site_label
_atom_site_type_symbol
_atom_site_forcefield_label
_atom_site_Cartn_x
_atom_site_Cartn_y
_atom_site_Cartn_z
_atom_site_charge
P        P   P      12.00900000  22.94800000  1.45700000  0.00000000
O        O   O      11.28400000  23.62800000  0.06500000  0.00000000
H        H   H      11.52700000  23.11100000 -0.70600000  0.00000000
O        O   O      11.57900000  23.86900000  2.83200000  0.00000000
H        H   H      11.98500000  23.48700000  3.61300000  0.00000000
O        O   O      11.46500000  21.33900000  1.65500000  0.00000000
C        C   C      13.82000000  22.95600000  1.26400000  0.00000000
H        H   H      14.16000000  23.96300000  1.14000000  0.00000000
H        H   H      14.27300000  22.53100000  2.13500000  0.00000000
N        N   N      14.19000000  22.16500000  0.08300000  0.00000000
H        H   H      13.87100000  21.22400000  0.19800000  0.00000000
C        C   C      15.65100000  22.17100000 -0.07300000  0.00000000
H        H   H      16.10500000  21.74500000  0.79800000  0.00000000
H        H   H      15.99300000  23.17800000 -0.19800000  0.00000000
C        C   C      16.03900000  21.34200000 -1.31200000  0.00000000
O        O   O      15.25200000  21.26500000 -2.29000000  0.00000000
O        O   O      17.29500000  20.65900000 -1.34900000  0.00000000
H        H   H      17.21400000  19.86900000 -1.88900000  0.00000000
