data_Movie_nu1000_modified_1.1.2_100.000000_0.000000_allcomponents

_cell_length_a  39.97000000
_cell_length_b  40.00000000
_cell_length_c  33.16000000
_cell_angle_alpha  90.00000000
_cell_angle_beta   90.00000000
_cell_angle_gamma  120.00000000


_symmetry_space_group_name_Hall ' P 1'
_symmetry_space_group_name_H-M  'P 1'
_symmetry_Int_Tables_number     1

loop_
_atom_site_label
_atom_site_type_symbol
_atom_site_forcefield_label
_atom_site_Cartn_x
_atom_site_Cartn_y
_atom_site_Cartn_z
_atom_site_charge
P        P   P      12.01700000  22.94800000  1.56800000  0.00000000
O        O   O      11.46000000  23.69800000  0.13500000  0.00000000
H        H   H      11.77000000  23.20200000 -0.62600000  0.00000000
O        O   O      11.46700000  23.83100000  2.92500000  0.00000000
H        H   H      11.77900000  23.40900000  3.72800000  0.00000000
O        O   O      11.41600000  21.34900000  1.64500000  0.00000000
C        C   C      13.83800000  22.91300000  1.56500000  0.00000000
H        H   H      14.21300000  23.91300000  1.51600000  0.00000000
H        H   H      14.18600000  22.44400000  2.46100000  0.00000000
N        N   N      14.31100000  22.15400000  0.39800000  0.00000000
H        H   H      13.96000000  21.22000000  0.44400000  0.00000000
C        C   C      15.78100000  22.12500000  0.39700000  0.00000000
H        H   H      16.13000000  21.65600000  1.29300000  0.00000000
H        H   H      16.15700000  23.12600000  0.34700000  0.00000000
C        C   C      16.27700000  21.33100000 -0.82600000  0.00000000
O        O   O      15.59500000  21.31100000 -1.88300000  0.00000000
O        O   O      17.51300000  20.61500000 -0.75900000  0.00000000
H        H   H      17.47000000  19.84800000 -1.33500000  0.00000000
