data_Movie_nu1000_modified_1.1.2_100.000000_0.000000_allcomponents

_cell_length_a  39.97000000
_cell_length_b  40.00000000
_cell_length_c  33.16000000
_cell_angle_alpha  90.00000000
_cell_angle_beta   90.00000000
_cell_angle_gamma  120.00000000


_symmetry_space_group_name_Hall ' P 1'
_symmetry_space_group_name_H-M  'P 1'
_symmetry_Int_Tables_number     1

loop_
_atom_site_label
_atom_site_type_symbol
_atom_site_forcefield_label
_atom_site_Cartn_x
_atom_site_Cartn_y
_atom_site_Cartn_z
_atom_site_charge
P        P   P      12.00900000  22.94800000  1.45600000  0.00000000
O        O   O      11.25000000  23.57800000  0.05900000  0.00000000
H        H   H      11.51300000  23.06300000 -0.70700000  0.00000000
O        O   O      11.54300000  23.86600000  2.82100000  0.00000000
H        H   H      11.96900000  23.51200000  3.60500000  0.00000000
O        O   O      11.53700000  21.31900000  1.67600000  0.00000000
C        C   C      13.81700000  23.03400000  1.25500000  0.00000000
H        H   H      14.11200000  24.05300000  1.11800000  0.00000000
H        H   H      14.29200000  22.64000000  2.13000000  0.00000000
N        N   N      14.21800000  22.24500000  0.08200000  0.00000000
H        H   H      13.94100000  21.29300000  0.21000000  0.00000000
C        C   C      15.67700000  22.31400000 -0.08000000  0.00000000
H        H   H      16.15200000  21.92000000  0.79400000  0.00000000
H        H   H      15.97200000  23.33300000 -0.21800000  0.00000000
C        C   C      16.09600000  21.48800000 -1.31000000  0.00000000
O        O   O      15.30900000  21.36400000 -2.28400000  0.00000000
O        O   O      17.38100000  20.86000000 -1.34500000  0.00000000
H        H   H      17.33200000  20.06100000 -1.87500000  0.00000000
