data_Movie_nu1000_modified_1.1.2_100.000000_0.000000_allcomponents

_cell_length_a  39.97000000
_cell_length_b  40.00000000
_cell_length_c  33.16000000
_cell_angle_alpha  90.00000000
_cell_angle_beta   90.00000000
_cell_angle_gamma  120.00000000


_symmetry_space_group_name_Hall ' P 1'
_symmetry_space_group_name_H-M  'P 1'
_symmetry_Int_Tables_number     1

loop_
_atom_site_label
_atom_site_type_symbol
_atom_site_forcefield_label
_atom_site_Cartn_x
_atom_site_Cartn_y
_atom_site_Cartn_z
_atom_site_charge
P        P   P      12.01700000  22.94800000  1.56800000  0.00000000
O        O   O      11.33800000  23.68600000  0.18200000  0.00000000
H        H   H      11.59600000  23.19500000 -0.60000000  0.00000000
O        O   O      11.55900000  23.82300000  2.96300000  0.00000000
H        H   H      11.94000000  23.40800000  3.74000000  0.00000000
O        O   O      11.45100000  21.33900000  1.69100000  0.00000000
C        C   C      13.83200000  22.94400000  1.42400000  0.00000000
H        H   H      14.18600000  23.95000000  1.34600000  0.00000000
H        H   H      14.25700000  22.48200000  2.29100000  0.00000000
N        N   N      14.22700000  22.19200000  0.22400000  0.00000000
H        H   H      13.89600000  21.25100000  0.29700000  0.00000000
C        C   C      15.69200000  22.18800000  0.10800000  0.00000000
H        H   H      16.11800000  21.72600000  0.97500000  0.00000000
H        H   H      16.04600000  23.19500000  0.03000000  0.00000000
C        C   C      16.10600000  21.40000000 -1.14900000  0.00000000
O        O   O      15.34400000  21.36800000 -2.15000000  0.00000000
O        O   O      17.35500000  20.70500000 -1.17800000  0.00000000
H        H   H      17.28000000  19.93700000 -1.74900000  0.00000000
