data_Movie_nu1000_modified_1.1.2_100.000000_0.000000_allcomponents

_cell_length_a  39.97000000
_cell_length_b  40.00000000
_cell_length_c  33.16000000
_cell_angle_alpha  90.00000000
_cell_angle_beta   90.00000000
_cell_angle_gamma  120.00000000


_symmetry_space_group_name_Hall ' P 1'
_symmetry_space_group_name_H-M  'P 1'
_symmetry_Int_Tables_number     1

loop_
_atom_site_label
_atom_site_type_symbol
_atom_site_forcefield_label
_atom_site_Cartn_x
_atom_site_Cartn_y
_atom_site_Cartn_z
_atom_site_charge
P        P   P      12.00900000  22.94800000  1.40100000  0.00000000
O        O   O      11.24900000  23.58700000  0.00800000  0.00000000
H        H   H      11.51600000  23.08100000 -0.76200000  0.00000000
O        O   O      11.53500000  23.85000000  2.77400000  0.00000000
H        H   H      11.96100000  23.49100000  3.55500000  0.00000000
O        O   O      11.54700000  21.31400000  1.60400000  0.00000000
C        C   C      13.81700000  23.04800000  1.20400000  0.00000000
H        H   H      14.10500000  24.07000000  1.07700000  0.00000000
H        H   H      14.29200000  22.64800000  2.07600000  0.00000000
N        N   N      14.22500000  22.27300000  0.02400000  0.00000000
H        H   H      13.95400000  21.31800000  0.14300000  0.00000000
C        C   C      15.68400000  22.35300000 -0.13400000  0.00000000
H        H   H      16.16000000  21.95300000  0.73700000  0.00000000
H        H   H      15.97300000  23.37500000 -0.26200000  0.00000000
C        C   C      16.11100000  21.54100000 -1.37100000  0.00000000
O        O   O      15.32700000  21.42200000 -2.34800000  0.00000000
O        O   O      17.40000000  20.92200000 -1.40900000  0.00000000
H        H   H      17.35700000  20.12800000 -1.94700000  0.00000000
