data_Movie_nu1000_modified_1.1.2_100.000000_0.000000_allcomponents

_cell_length_a  39.97000000
_cell_length_b  40.00000000
_cell_length_c  33.16000000
_cell_angle_alpha  90.00000000
_cell_angle_beta   90.00000000
_cell_angle_gamma  120.00000000


_symmetry_space_group_name_Hall ' P 1'
_symmetry_space_group_name_H-M  'P 1'
_symmetry_Int_Tables_number     1

loop_
_atom_site_label
_atom_site_type_symbol
_atom_site_forcefield_label
_atom_site_Cartn_x
_atom_site_Cartn_y
_atom_site_Cartn_z
_atom_site_charge
P        P   P      12.02500000  22.95600000  1.51000000  0.00000000
O        O   O      11.32300000  23.68700000  0.13300000  0.00000000
H        H   H      11.58000000  23.20100000 -0.65300000  0.00000000
O        O   O      11.56900000  23.82300000  2.91100000  0.00000000
H        H   H      11.96300000  23.41200000  3.68400000  0.00000000
O        O   O      11.48100000  21.34000000  1.63700000  0.00000000
C        C   C      13.83900000  22.97500000  1.34800000  0.00000000
H        H   H      14.17900000  23.98600000  1.26900000  0.00000000
H        H   H      14.27800000  22.51700000  2.21100000  0.00000000
N        N   N      14.23100000  22.22900000  0.14400000  0.00000000
H        H   H      13.91300000  21.28500000  0.21900000  0.00000000
C        C   C      15.69500000  22.24400000  0.01400000  0.00000000
H        H   H      16.13500000  21.78600000  0.87600000  0.00000000
H        H   H      16.03600000  23.25500000 -0.06600000  0.00000000
C        C   C      16.10600000  21.46300000 -1.24800000  0.00000000
O        O   O      15.33500000  21.42200000 -2.24200000  0.00000000
O        O   O      17.36400000  20.78400000 -1.29000000  0.00000000
H        H   H      17.29300000  20.01500000 -1.86100000  0.00000000
