data_Movie_nu1000_modified_1.1.2_100.000000_0.000000_allcomponents

_cell_length_a  39.97000000
_cell_length_b  40.00000000
_cell_length_c  33.16000000
_cell_angle_alpha  90.00000000
_cell_angle_beta   90.00000000
_cell_angle_gamma  120.00000000


_symmetry_space_group_name_Hall ' P 1'
_symmetry_space_group_name_H-M  'P 1'
_symmetry_Int_Tables_number     1

loop_
_atom_site_label
_atom_site_type_symbol
_atom_site_forcefield_label
_atom_site_Cartn_x
_atom_site_Cartn_y
_atom_site_Cartn_z
_atom_site_charge
P        P   P      20.82000000  9.40500000  9.96800000  0.00000000
O        O   O      22.21400000  9.85800000  9.08500000  0.00000000
H        H   H      22.04700000  10.68500000  8.62800000  0.00000000
O        O   O      21.11500000  7.93200000  10.78300000  0.00000000
H        H   H      20.33300000  7.67900000  11.27800000  0.00000000
O        O   O      20.44800000  10.62400000  11.10900000  0.00000000
C        C   C      19.41900000  9.19700000  8.82300000  0.00000000
H        H   H      19.65300000  8.43500000  8.11000000  0.00000000
H        H   H      18.54700000  8.91300000  9.37600000  0.00000000
N        N   N      19.16600000  10.46300000  8.12300000  0.00000000
H        H   H      18.94800000  11.17500000  8.79000000  0.00000000
C        C   C      18.03500000  10.29500000  7.20000000  0.00000000
H        H   H      17.16300000  10.01200000  7.75200000  0.00000000
H        H   H      18.26800000  9.53300000  6.48500000  0.00000000
C        C   C      17.77000000  11.62200000  6.46500000  0.00000000
O        O   O      18.71900000  12.41800000  6.24000000  0.00000000
O        O   O      16.44500000  11.95100000  6.03900000  0.00000000
H        H   H      16.33500000  12.90500000  6.04300000  0.00000000
