data_Movie_nu1000_modified_1.1.2_100.000000_0.000000_allcomponents

_cell_length_a  39.97000000
_cell_length_b  40.00000000
_cell_length_c  33.16000000
_cell_angle_alpha  90.00000000
_cell_angle_beta   90.00000000
_cell_angle_gamma  120.00000000


_symmetry_space_group_name_Hall ' P 1'
_symmetry_space_group_name_H-M  'P 1'
_symmetry_Int_Tables_number     1

loop_
_atom_site_label
_atom_site_type_symbol
_atom_site_forcefield_label
_atom_site_Cartn_x
_atom_site_Cartn_y
_atom_site_Cartn_z
_atom_site_charge
P        P   P      12.02000000  22.93700000  1.39900000  0.00000000
O        O   O      11.34800000  23.61300000 -0.02100000  0.00000000
H        H   H      11.60400000  23.08200000 -0.77900000  0.00000000
O        O   O      11.56700000  23.88200000  2.75000000  0.00000000
H        H   H      11.94400000  23.50300000  3.54700000  0.00000000
O        O   O      11.44000000  21.34100000  1.60000000  0.00000000
C        C   C      13.83500000  22.91100000  1.25800000  0.00000000
H        H   H      14.19700000  23.90900000  1.13300000  0.00000000
H        H   H      14.25500000  22.48800000  2.14700000  0.00000000
N        N   N      14.22500000  22.09900000  0.09700000  0.00000000
H        H   H      13.88600000  21.16500000  0.21500000  0.00000000
C        C   C      15.69000000  22.07600000 -0.01600000  0.00000000
H        H   H      16.11000000  21.65300000  0.87300000  0.00000000
H        H   H      16.05300000  23.07500000 -0.14200000  0.00000000
C        C   C      16.09800000  21.22600000 -1.23300000  0.00000000
O        O   O      15.33800000  21.15100000 -2.23300000  0.00000000
O        O   O      17.34200000  20.52000000 -1.22600000  0.00000000
H        H   H      17.26100000  19.72500000 -1.75900000  0.00000000
