data_Movie_nu1000_modified_1.1.2_100.000000_0.000000_allcomponents

_cell_length_a  39.97000000
_cell_length_b  40.00000000
_cell_length_c  33.16000000
_cell_angle_alpha  90.00000000
_cell_angle_beta   90.00000000
_cell_angle_gamma  120.00000000


_symmetry_space_group_name_Hall ' P 1'
_symmetry_space_group_name_H-M  'P 1'
_symmetry_Int_Tables_number     1

loop_
_atom_site_label
_atom_site_type_symbol
_atom_site_forcefield_label
_atom_site_Cartn_x
_atom_site_Cartn_y
_atom_site_Cartn_z
_atom_site_charge
P        P   P      11.61600000  23.62500000  3.15900000  0.00000000
O        O   O      11.63800000  24.51200000  1.69600000  0.00000000
H        H   H      12.29300000  24.13500000  1.10400000  0.00000000
O        O   O      10.45000000  24.29600000  4.21500000  0.00000000
H        H   H      10.43800000  23.79800000  5.03500000  0.00000000
O        O   O      11.21600000  21.99500000  2.83100000  0.00000000
C        C   C      13.25800000  23.70200000  3.94000000  0.00000000
H        H   H      13.50800000  24.72200000  4.14500000  0.00000000
H        H   H      13.24400000  23.14800000  4.85500000  0.00000000
N        N   N      14.26000000  23.12600000  3.03300000  0.00000000
H        H   H      14.02600000  22.17300000  2.84100000  0.00000000
C        C   C      15.58600000  23.18700000  3.66300000  0.00000000
H        H   H      15.57200000  22.63200000  4.57800000  0.00000000
H        H   H      15.83700000  24.20700000  3.86800000  0.00000000
C        C   C      16.63600000  22.58300000  2.71200000  0.00000000
O        O   O      16.47100000  22.65400000  1.46700000  0.00000000
O        O   O      17.79800000  21.94100000  3.24500000  0.00000000
H        H   H      18.08600000  21.25100000  2.64300000  0.00000000
