data_Movie_nu1000_modified_1.1.2_100.000000_0.000000_allcomponents

_cell_length_a  39.97000000
_cell_length_b  40.00000000
_cell_length_c  33.16000000
_cell_angle_alpha  90.00000000
_cell_angle_beta   90.00000000
_cell_angle_gamma  120.00000000


_symmetry_space_group_name_Hall ' P 1'
_symmetry_space_group_name_H-M  'P 1'
_symmetry_Int_Tables_number     1

loop_
_atom_site_label
_atom_site_type_symbol
_atom_site_forcefield_label
_atom_site_Cartn_x
_atom_site_Cartn_y
_atom_site_Cartn_z
_atom_site_charge
P        P   P      12.00900000  22.94800000  1.56600000  0.00000000
O        O   O      11.33400000  23.63100000  0.15100000  0.00000000
H        H   H      11.60000000  23.11300000 -0.61200000  0.00000000
O        O   O      11.53800000  23.87100000  2.92600000  0.00000000
H        H   H      11.91700000  23.48700000  3.72000000  0.00000000
O        O   O      11.45100000  21.34100000  1.74600000  0.00000000
C        C   C      13.82500000  22.94800000  1.43300000  0.00000000
H        H   H      14.17400000  23.95300000  1.32000000  0.00000000
H        H   H      14.24700000  22.52100000  2.31900000  0.00000000
N        N   N      14.23100000  22.15500000  0.26400000  0.00000000
H        H   H      13.90400000  21.21600000  0.37000000  0.00000000
C        C   C      15.69600000  22.15400000  0.15700000  0.00000000
H        H   H      16.11900000  21.72600000  1.04200000  0.00000000
H        H   H      16.04600000  23.15900000  0.04400000  0.00000000
C        C   C      16.12100000  21.32300000 -1.06800000  0.00000000
O        O   O      15.36600000  21.25000000 -2.07200000  0.00000000
O        O   O      17.37400000  20.63400000 -1.06400000  0.00000000
H        H   H      17.30700000  19.84400000 -1.60700000  0.00000000
