data_Movie_nu1000_modified_1.1.2_100.000000_0.000000_allcomponents

_cell_length_a  39.97000000
_cell_length_b  40.00000000
_cell_length_c  33.16000000
_cell_angle_alpha  90.00000000
_cell_angle_beta   90.00000000
_cell_angle_gamma  120.00000000


_symmetry_space_group_name_Hall ' P 1'
_symmetry_space_group_name_H-M  'P 1'
_symmetry_Int_Tables_number     1

loop_
_atom_site_label
_atom_site_type_symbol
_atom_site_forcefield_label
_atom_site_Cartn_x
_atom_site_Cartn_y
_atom_site_Cartn_z
_atom_site_charge
P        P   P      10.07400000  25.78900000  31.50800000  0.00000000
O        O   O      9.60700000  25.94900000  29.87100000  0.00000000
H        H   H      10.04800000  25.27700000  29.34600000  0.00000000
O        O   O      9.29100000  26.98700000  32.44400000  0.00000000
H        H   H      9.55300000  26.89600000  33.36300000  0.00000000
O        O   O      9.63100000  24.23900000  32.07900000  0.00000000
C        C   C      11.87800000  25.99400000  31.64700000  0.00000000
H        H   H      12.15500000  26.96400000  31.29100000  0.00000000
H        H   H      12.17000000  25.89400000  32.67200000  0.00000000
N        N   N      12.55200000  24.96500000  30.84300000  0.00000000
H        H   H      12.29200000  24.05900000  31.17700000  0.00000000
C        C   C      14.00800000  25.13000000  30.95600000  0.00000000
H        H   H      14.30000000  25.03000000  31.98000000  0.00000000
H        H   H      14.28500000  26.10000000  30.59900000  0.00000000
C        C   C      14.71400000  24.05200000  30.11200000  0.00000000
O        O   O      14.15900000  23.59900000  29.07800000  0.00000000
O        O   O      16.00000000  23.56600000  30.50600000  0.00000000
H        H   H      16.09700000  22.65400000  30.22100000  0.00000000
