data_Movie_nu1000_modified_1.1.2_100.000000_0.000000_allcomponents

_cell_length_a  39.97000000
_cell_length_b  40.00000000
_cell_length_c  33.16000000
_cell_angle_alpha  90.00000000
_cell_angle_beta   90.00000000
_cell_angle_gamma  120.00000000


_symmetry_space_group_name_Hall ' P 1'
_symmetry_space_group_name_H-M  'P 1'
_symmetry_Int_Tables_number     1

loop_
_atom_site_label
_atom_site_type_symbol
_atom_site_forcefield_label
_atom_site_Cartn_x
_atom_site_Cartn_y
_atom_site_Cartn_z
_atom_site_charge
P        P   P      12.01300000  22.93700000  1.39900000  0.00000000
O        O   O      11.16600000  23.78000000  0.17400000  0.00000000
H        H   H      11.38900000  23.40800000 -0.68200000  0.00000000
O        O   O      11.61800000  23.59900000  2.92500000  0.00000000
H        H   H      12.09300000  23.12600000  3.61100000  0.00000000
O        O   O      11.57300000  21.28500000  1.36200000  0.00000000
C        C   C      13.80400000  23.09400000  1.11400000  0.00000000
H        H   H      14.07900000  24.12800000  1.13700000  0.00000000
H        H   H      14.33400000  22.56700000  1.88100000  0.00000000
N        N   N      14.14400000  22.52600000 -0.19700000  0.00000000
H        H   H      13.88700000  21.56000000 -0.21800000  0.00000000
C        C   C      15.59100000  22.65200000 -0.42600000  0.00000000
H        H   H      16.12100000  22.12400000  0.33900000  0.00000000
H        H   H      15.86600000  23.68600000 -0.40400000  0.00000000
C        C   C      15.94700000  22.05600000 -1.80100000  0.00000000
O        O   O      15.10500000  22.08300000 -2.73600000  0.00000000
O        O   O      17.23400000  21.47100000 -2.01500000  0.00000000
H        H   H      17.16300000  20.77300000 -2.67000000  0.00000000
