data_Movie_nu1000_modified_1.1.2_100.000000_0.000000_allcomponents

_cell_length_a  39.97000000
_cell_length_b  40.00000000
_cell_length_c  33.16000000
_cell_angle_alpha  90.00000000
_cell_angle_beta   90.00000000
_cell_angle_gamma  120.00000000


_symmetry_space_group_name_Hall ' P 1'
_symmetry_space_group_name_H-M  'P 1'
_symmetry_Int_Tables_number     1

loop_
_atom_site_label
_atom_site_type_symbol
_atom_site_forcefield_label
_atom_site_Cartn_x
_atom_site_Cartn_y
_atom_site_Cartn_z
_atom_site_charge
P        P   P      12.01700000  22.94800000  1.39800000  0.00000000
O        O   O      11.09400000  23.64700000  0.13900000  0.00000000
H        H   H      11.25400000  23.16900000 -0.67700000  0.00000000
O        O   O      11.73500000  23.80000000  2.85400000  0.00000000
H        H   H      12.25200000  23.40700000  3.56000000  0.00000000
O        O   O      11.56200000  21.31100000  1.59700000  0.00000000
C        C   C      13.78600000  23.03900000  0.97600000  0.00000000
H        H   H      14.07000000  24.06200000  0.85100000  0.00000000
H        H   H      14.36300000  22.60100000  1.76400000  0.00000000
N        N   N      14.02900000  22.30700000 -0.27500000  0.00000000
H        H   H      13.76300000  21.35000000 -0.15800000  0.00000000
C        C   C      15.45700000  22.37900000 -0.61500000  0.00000000
H        H   H      16.03500000  21.94200000  0.17200000  0.00000000
H        H   H      15.74200000  23.40300000 -0.74100000  0.00000000
C        C   C      15.71200000  21.61300000 -1.92600000  0.00000000
O        O   O      14.80800000  21.53900000 -2.79800000  0.00000000
O        O   O      16.97700000  20.98400000 -2.15200000  0.00000000
H        H   H      16.85500000  20.21200000 -2.71000000  0.00000000
