data_Movie_nu1000_modified_1.1.2_100.000000_0.000000_allcomponents

_cell_length_a  39.97000000
_cell_length_b  40.00000000
_cell_length_c  33.16000000
_cell_angle_alpha  90.00000000
_cell_angle_beta   90.00000000
_cell_angle_gamma  120.00000000


_symmetry_space_group_name_Hall ' P 1'
_symmetry_space_group_name_H-M  'P 1'
_symmetry_Int_Tables_number     1

loop_
_atom_site_label
_atom_site_type_symbol
_atom_site_forcefield_label
_atom_site_Cartn_x
_atom_site_Cartn_y
_atom_site_Cartn_z
_atom_site_charge
P        P   P      12.02000000  22.93700000  1.38600000  0.00000000
O        O   O      11.12700000  23.54700000  0.06000000  0.00000000
H        H   H      11.38200000  23.08000000 -0.73800000  0.00000000
O        O   O      11.56800000  23.77000000  2.80900000  0.00000000
H        H   H      12.06900000  23.42700000  3.55200000  0.00000000
O        O   O      11.69400000  21.26900000  1.57300000  0.00000000
C        C   C      13.79900000  23.17800000  1.08000000  0.00000000
H        H   H      14.00200000  24.22100000  0.96300000  0.00000000
H        H   H      14.35700000  22.79600000  1.91000000  0.00000000
N        N   N      14.18700000  22.46200000 -0.14300000  0.00000000
H        H   H      13.99600000  21.48700000 -0.03300000  0.00000000
C        C   C      15.62300000  22.65500000 -0.38900000  0.00000000
H        H   H      16.18200000  22.27400000  0.44000000  0.00000000
H        H   H      15.82700000  23.69900000 -0.50700000  0.00000000
C        C   C      16.03000000  21.90600000 -1.67100000  0.00000000
O        O   O      15.19600000  21.74900000 -2.60000000  0.00000000
O        O   O      17.35600000  21.38700000 -1.80600000  0.00000000
H        H   H      17.33800000  20.60400000 -2.36100000  0.00000000
