data_Movie_nu1000_modified_1.1.2_100.000000_0.000000_allcomponents

_cell_length_a  39.97000000
_cell_length_b  40.00000000
_cell_length_c  33.16000000
_cell_angle_alpha  90.00000000
_cell_angle_beta   90.00000000
_cell_angle_gamma  120.00000000


_symmetry_space_group_name_Hall ' P 1'
_symmetry_space_group_name_H-M  'P 1'
_symmetry_Int_Tables_number     1

loop_
_atom_site_label
_atom_site_type_symbol
_atom_site_forcefield_label
_atom_site_Cartn_x
_atom_site_Cartn_y
_atom_site_Cartn_z
_atom_site_charge
P        P   P      12.02500000  22.95600000  1.61900000  0.00000000
O        O   O      11.27900000  23.67400000  0.25800000  0.00000000
H        H   H      11.52900000  23.19200000 -0.53400000  0.00000000
O        O   O      11.58400000  23.81500000  3.03100000  0.00000000
H        H   H      12.00200000  23.41100000  3.79400000  0.00000000
O        O   O      11.51500000  21.33000000  1.75800000  0.00000000
C        C   C      13.83400000  23.00900000  1.41800000  0.00000000
H        H   H      14.15300000  24.02700000  1.33200000  0.00000000
H        H   H      14.30100000  22.56000000  2.27100000  0.00000000
N        N   N      14.21400000  22.27200000  0.20600000  0.00000000
H        H   H      13.91600000  21.32100000  0.28700000  0.00000000
C        C   C      15.67400000  22.31400000  0.04400000  0.00000000
H        H   H      16.14200000  21.86500000  0.89500000  0.00000000
H        H   H      15.99400000  23.33200000 -0.04400000  0.00000000
C        C   C      16.07300000  21.54200000 -1.22800000  0.00000000
O        O   O      15.28200000  21.48600000 -2.20500000  0.00000000
O        O   O      17.34200000  20.88600000 -1.29800000  0.00000000
H        H   H      17.27400000  20.11700000 -1.86700000  0.00000000
