data_Movie_nu1000_modified_1.1.2_100.000000_0.000000_allcomponents

_cell_length_a  39.97000000
_cell_length_b  40.00000000
_cell_length_c  33.16000000
_cell_angle_alpha  90.00000000
_cell_angle_beta   90.00000000
_cell_angle_gamma  120.00000000


_symmetry_space_group_name_Hall ' P 1'
_symmetry_space_group_name_H-M  'P 1'
_symmetry_Int_Tables_number     1

loop_
_atom_site_label
_atom_site_type_symbol
_atom_site_forcefield_label
_atom_site_Cartn_x
_atom_site_Cartn_y
_atom_site_Cartn_z
_atom_site_charge
P        P   P      20.69300000  9.40500000  9.42100000  0.00000000
O        O   O      21.75600000  10.49600000  8.64300000  0.00000000
H        H   H      21.62800000  11.37700000  9.00100000  0.00000000
O        O   O      20.91900000  7.83500000  8.78300000  0.00000000
H        H   H      20.32300000  7.22400000  9.22000000  0.00000000
O        O   O      21.02000000  9.39100000  11.10000000  0.00000000
C        C   C      18.97300000  9.93200000  9.14200000  0.00000000
H        H   H      18.76900000  9.94000000  8.09200000  0.00000000
H        H   H      18.30800000  9.24900000  9.62800000  0.00000000
N        N   N      18.77800000  11.28100000  9.69000000  0.00000000
H        H   H      18.96900000  11.27300000  10.67100000  0.00000000
C        C   C      17.38900000  11.70600000  9.46500000  0.00000000
H        H   H      16.72400000  11.02400000  9.95200000  0.00000000
H        H   H      17.18400000  11.71500000  8.41500000  0.00000000
C        C   C      17.18500000  13.12000000  10.03900000  0.00000000
O        O   O      18.14700000  13.93100000  10.07300000  0.00000000
O        O   O      15.90200000  13.51200000  10.53500000  0.00000000
H        H   H      16.01400000  14.15600000  11.23800000  0.00000000
