data_Movie_nu1000_modified_1.1.2_100.000000_0.000000_allcomponents

_cell_length_a  39.97000000
_cell_length_b  40.00000000
_cell_length_c  33.16000000
_cell_angle_alpha  90.00000000
_cell_angle_beta   90.00000000
_cell_angle_gamma  120.00000000


_symmetry_space_group_name_Hall ' P 1'
_symmetry_space_group_name_H-M  'P 1'
_symmetry_Int_Tables_number     1

loop_
_atom_site_label
_atom_site_type_symbol
_atom_site_forcefield_label
_atom_site_Cartn_x
_atom_site_Cartn_y
_atom_site_Cartn_z
_atom_site_charge
P        P   P      12.00900000  22.94800000  1.54300000  0.00000000
O        O   O      11.33800000  23.63100000  0.12600000  0.00000000
H        H   H      11.60500000  23.11300000 -0.63600000  0.00000000
O        O   O      11.53500000  23.87100000  2.90200000  0.00000000
H        H   H      11.91100000  23.48700000  3.69600000  0.00000000
O        O   O      11.45000000  21.34100000  1.72200000  0.00000000
C        C   C      13.82500000  22.94800000  1.41400000  0.00000000
H        H   H      14.17400000  23.95300000  1.30300000  0.00000000
H        H   H      14.24500000  22.52100000  2.30100000  0.00000000
N        N   N      14.23400000  22.15500000  0.24700000  0.00000000
H        H   H      13.90700000  21.21600000  0.35100000  0.00000000
C        C   C      15.70000000  22.15400000  0.14300000  0.00000000
H        H   H      16.12000000  21.72600000  1.03000000  0.00000000
H        H   H      16.05000000  23.15900000  0.03100000  0.00000000
C        C   C      16.12800000  21.32300000 -1.08100000  0.00000000
O        O   O      15.37500000  21.25000000 -2.08600000  0.00000000
O        O   O      17.38100000  20.63400000 -1.07400000  0.00000000
H        H   H      17.31500000  19.84400000 -1.61600000  0.00000000
