data_Movie_nu1000_modified_1.1.2_100.000000_0.000000_allcomponents

_cell_length_a  39.97000000
_cell_length_b  40.00000000
_cell_length_c  33.16000000
_cell_angle_alpha  90.00000000
_cell_angle_beta   90.00000000
_cell_angle_gamma  120.00000000


_symmetry_space_group_name_Hall ' P 1'
_symmetry_space_group_name_H-M  'P 1'
_symmetry_Int_Tables_number     1

loop_
_atom_site_label
_atom_site_type_symbol
_atom_site_forcefield_label
_atom_site_Cartn_x
_atom_site_Cartn_y
_atom_site_Cartn_z
_atom_site_charge
P        P   P      12.01700000  22.94800000  1.78400000  0.00000000
O        O   O      11.30900000  23.65600000  0.39800000  0.00000000
H        H   H      11.59200000  23.17800000 -0.38500000  0.00000000
O        O   O      11.51500000  23.79900000  3.18000000  0.00000000
H        H   H      11.91200000  23.40100000  3.95700000  0.00000000
O        O   O      11.52500000  21.31400000  1.90400000  0.00000000
C        C   C      13.83100000  23.02700000  1.64600000  0.00000000
H        H   H      14.13800000  24.04900000  1.57100000  0.00000000
H        H   H      14.27400000  22.58400000  2.51400000  0.00000000
N        N   N      14.26300000  22.29600000  0.44700000  0.00000000
H        H   H      13.97600000  21.34100000  0.51800000  0.00000000
C        C   C      15.72700000  22.35900000  0.33600000  0.00000000
H        H   H      16.17100000  21.91600000  1.20300000  0.00000000
H        H   H      16.03600000  23.38100000  0.26000000  0.00000000
C        C   C      16.18100000  21.59300000 -0.92100000  0.00000000
O        O   O      15.42500000  21.52700000 -1.92500000  0.00000000
O        O   O      17.46100000  20.95600000 -0.94700000  0.00000000
H        H   H      17.42300000  20.18600000 -1.51900000  0.00000000
