data_Movie_nu1000_modified_1.1.2_100.000000_0.000000_allcomponents

_cell_length_a  39.97000000
_cell_length_b  40.00000000
_cell_length_c  33.16000000
_cell_angle_alpha  90.00000000
_cell_angle_beta   90.00000000
_cell_angle_gamma  120.00000000


_symmetry_space_group_name_Hall ' P 1'
_symmetry_space_group_name_H-M  'P 1'
_symmetry_Int_Tables_number     1

loop_
_atom_site_label
_atom_site_type_symbol
_atom_site_forcefield_label
_atom_site_Cartn_x
_atom_site_Cartn_y
_atom_site_Cartn_z
_atom_site_charge
P        P   P      12.00900000  22.94800000  1.65500000  0.00000000
O        O   O      11.24300000  23.65100000  0.29800000  0.00000000
H        H   H      11.45200000  23.14000000 -0.48700000  0.00000000
O        O   O      11.63900000  23.85800000  3.05400000  0.00000000
H        H   H      12.06900000  23.46300000  3.81600000  0.00000000
O        O   O      11.45400000  21.34300000  1.85500000  0.00000000
C        C   C      13.81200000  22.93900000  1.39700000  0.00000000
H        H   H      14.15800000  23.94300000  1.27100000  0.00000000
H        H   H      14.29100000  22.49900000  2.24700000  0.00000000
N        N   N      14.13000000  22.15700000  0.19400000  0.00000000
H        H   H      13.80500000  21.21800000  0.31100000  0.00000000
C        C   C      15.58500000  22.14900000 -0.01400000  0.00000000
H        H   H      16.06500000  21.70800000  0.83500000  0.00000000
H        H   H      15.93300000  23.15300000 -0.14000000  0.00000000
C        C   C      15.91900000  21.32900000 -1.27500000  0.00000000
O        O   O      15.09500000  21.27200000 -2.22500000  0.00000000
O        O   O      17.16500000  20.63300000 -1.36500000  0.00000000
H        H   H      17.05500000  19.85000000 -1.91000000  0.00000000
