data_Movie_nu1000_modified_1.1.2_100.000000_0.000000_allcomponents

_cell_length_a  39.97000000
_cell_length_b  40.00000000
_cell_length_c  33.16000000
_cell_angle_alpha  90.00000000
_cell_angle_beta   90.00000000
_cell_angle_gamma  120.00000000


_symmetry_space_group_name_Hall ' P 1'
_symmetry_space_group_name_H-M  'P 1'
_symmetry_Int_Tables_number     1

loop_
_atom_site_label
_atom_site_type_symbol
_atom_site_forcefield_label
_atom_site_Cartn_x
_atom_site_Cartn_y
_atom_site_Cartn_z
_atom_site_charge
P        P   P      20.82000000  9.40500000  10.11400000  0.00000000
O        O   O      21.88300000  10.49600000  9.33600000  0.00000000
H        H   H      21.75500000  11.37700000  9.69400000  0.00000000
O        O   O      21.04700000  7.83500000  9.47600000  0.00000000
H        H   H      20.45000000  7.22400000  9.91300000  0.00000000
O        O   O      21.14700000  9.39100000  11.79300000  0.00000000
C        C   C      19.10000000  9.93200000  9.83500000  0.00000000
H        H   H      18.89600000  9.94000000  8.78500000  0.00000000
H        H   H      18.43500000  9.24900000  10.32200000  0.00000000
N        N   N      18.90500000  11.28100000  10.38300000  0.00000000
H        H   H      19.09600000  11.27300000  11.36500000  0.00000000
C        C   C      17.51600000  11.70600000  10.15800000  0.00000000
H        H   H      16.85100000  11.02400000  10.64600000  0.00000000
H        H   H      17.31200000  11.71500000  9.10800000  0.00000000
C        C   C      17.31200000  13.12000000  10.73300000  0.00000000
O        O   O      18.27400000  13.93100000  10.76600000  0.00000000
O        O   O      16.02900000  13.51200000  11.22800000  0.00000000
H        H   H      16.14100000  14.15600000  11.93200000  0.00000000
