data_Movie_nu1000_modified_1.1.2_100.000000_0.000000_allcomponents

_cell_length_a  39.97000000
_cell_length_b  40.00000000
_cell_length_c  33.16000000
_cell_angle_alpha  90.00000000
_cell_angle_beta   90.00000000
_cell_angle_gamma  120.00000000


_symmetry_space_group_name_Hall ' P 1'
_symmetry_space_group_name_H-M  'P 1'
_symmetry_Int_Tables_number     1

loop_
_atom_site_label
_atom_site_type_symbol
_atom_site_forcefield_label
_atom_site_Cartn_x
_atom_site_Cartn_y
_atom_site_Cartn_z
_atom_site_charge
P        P   P      12.00900000  22.94800000  1.59100000  0.00000000
O        O   O      11.33800000  23.62000000  0.16800000  0.00000000
H        H   H      11.60100000  23.09200000 -0.58900000  0.00000000
O        O   O      11.54300000  23.88800000  2.94000000  0.00000000
H        H   H      11.92000000  23.51100000  3.73800000  0.00000000
O        O   O      11.44100000  21.34700000  1.78800000  0.00000000
C        C   C      13.82500000  22.93600000  1.45700000  0.00000000
H        H   H      14.18000000  23.93700000  1.33400000  0.00000000
H        H   H      14.24500000  22.51600000  2.34800000  0.00000000
N        N   N      14.22600000  22.12800000  0.29700000  0.00000000
H        H   H      13.89400000  21.19200000  0.41300000  0.00000000
C        C   C      15.69200000  22.11700000  0.19000000  0.00000000
H        H   H      16.11200000  21.69700000  1.08000000  0.00000000
H        H   H      16.04700000  23.11900000  0.06600000  0.00000000
C        C   C      16.11200000  21.27100000 -1.02600000  0.00000000
O        O   O      15.35600000  21.19100000 -2.02900000  0.00000000
O        O   O      17.36100000  20.57400000 -1.01500000  0.00000000
H        H   H      17.28900000  19.78000000 -1.54900000  0.00000000
