data_Movie_nu1000_modified_1.1.2_100.000000_0.000000_allcomponents

_cell_length_a  39.97000000
_cell_length_b  40.00000000
_cell_length_c  33.16000000
_cell_angle_alpha  90.00000000
_cell_angle_beta   90.00000000
_cell_angle_gamma  120.00000000


_symmetry_space_group_name_Hall ' P 1'
_symmetry_space_group_name_H-M  'P 1'
_symmetry_Int_Tables_number     1

loop_
_atom_site_label
_atom_site_type_symbol
_atom_site_forcefield_label
_atom_site_Cartn_x
_atom_site_Cartn_y
_atom_site_Cartn_z
_atom_site_charge
P        P   P      12.01700000  22.94800000  1.33300000  0.00000000
O        O   O      11.31000000  23.65800000 -0.05300000  0.00000000
H        H   H      11.59300000  23.17900000 -0.83600000  0.00000000
O        O   O      11.51600000  23.80000000  2.72900000  0.00000000
H        H   H      11.91300000  23.40100000  3.50600000  0.00000000
O        O   O      11.52200000  21.31500000  1.45300000  0.00000000
C        C   C      13.83100000  23.02300000  1.19500000  0.00000000
H        H   H      14.14100000  24.04400000  1.12000000  0.00000000
H        H   H      14.27300000  22.57900000  2.06300000  0.00000000
N        N   N      14.26200000  22.29100000 -0.00400000  0.00000000
H        H   H      13.97200000  21.33700000  0.06600000  0.00000000
C        C   C      15.72600000  22.35100000 -0.11500000  0.00000000
H        H   H      16.16900000  21.90700000  0.75200000  0.00000000
H        H   H      16.03700000  23.37200000 -0.19100000  0.00000000
C        C   C      16.17800000  21.58400000 -1.37200000  0.00000000
O        O   O      15.42100000  21.52000000 -2.37600000  0.00000000
O        O   O      17.45600000  20.94400000 -1.39800000  0.00000000
H        H   H      17.41700000  20.17400000 -1.97000000  0.00000000
