data_Movie_nu1000_modified_1.1.2_100.000000_0.000000_allcomponents

_cell_length_a  39.97000000
_cell_length_b  40.00000000
_cell_length_c  33.16000000
_cell_angle_alpha  90.00000000
_cell_angle_beta   90.00000000
_cell_angle_gamma  120.00000000


_symmetry_space_group_name_Hall ' P 1'
_symmetry_space_group_name_H-M  'P 1'
_symmetry_Int_Tables_number     1

loop_
_atom_site_label
_atom_site_type_symbol
_atom_site_forcefield_label
_atom_site_Cartn_x
_atom_site_Cartn_y
_atom_site_Cartn_z
_atom_site_charge
P        P   P      12.02500000  22.95600000  1.82200000  0.00000000
O        O   O      11.35900000  23.65600000  0.41100000  0.00000000
H        H   H      11.67500000  23.18100000 -0.36100000  0.00000000
O        O   O      11.46500000  23.80200000  3.19800000  0.00000000
H        H   H      11.83800000  23.40900000  3.99000000  0.00000000
O        O   O      11.54700000  21.31800000  1.92600000  0.00000000
C        C   C      13.84200000  23.05400000  1.74900000  0.00000000
H        H   H      14.14100000  24.07900000  1.68400000  0.00000000
H        H   H      14.25900000  22.61600000  2.63200000  0.00000000
N        N   N      14.32400000  22.32700000  0.56600000  0.00000000
H        H   H      14.04400000  21.36900000  0.62700000  0.00000000
C        C   C      15.79100000  22.40500000  0.50700000  0.00000000
H        H   H      16.20800000  21.96700000  1.39000000  0.00000000
H        H   H      16.09100000  23.43100000  0.44200000  0.00000000
C        C   C      16.29600000  21.64400000 -0.73200000  0.00000000
O        O   O      15.57700000  21.56900000 -1.76200000  0.00000000
O        O   O      17.58300000  21.02000000 -0.71200000  0.00000000
H        H   H      17.57400000  20.24900000 -1.28400000  0.00000000
