data_Movie_nu1000_modified_1.1.2_100.000000_0.000000_allcomponents

_cell_length_a  39.97000000
_cell_length_b  40.00000000
_cell_length_c  33.16000000
_cell_angle_alpha  90.00000000
_cell_angle_beta   90.00000000
_cell_angle_gamma  120.00000000


_symmetry_space_group_name_Hall ' P 1'
_symmetry_space_group_name_H-M  'P 1'
_symmetry_Int_Tables_number     1

loop_
_atom_site_label
_atom_site_type_symbol
_atom_site_forcefield_label
_atom_site_Cartn_x
_atom_site_Cartn_y
_atom_site_Cartn_z
_atom_site_charge
P        P   P      12.01300000  22.93700000  1.40900000  0.00000000
O        O   O      11.12900000  23.76100000  0.19800000  0.00000000
H        H   H      11.34900000  23.39500000 -0.66200000  0.00000000
O        O   O      11.62300000  23.58800000  2.94100000  0.00000000
H        H   H      12.11900000  23.12500000  3.62000000  0.00000000
O        O   O      11.61200000  21.27500000  1.37600000  0.00000000
C        C   C      13.79600000  23.13700000  1.10000000  0.00000000
H        H   H      14.04600000  24.17700000  1.12000000  0.00000000
H        H   H      14.34900000  22.62200000  1.85800000  0.00000000
N        N   N      14.13100000  22.57800000 -0.21700000  0.00000000
H        H   H      13.89600000  21.60600000 -0.23600000  0.00000000
C        C   C      15.57100000  22.73900000 -0.46600000  0.00000000
H        H   H      16.12400000  22.22300000  0.29200000  0.00000000
H        H   H      15.82200000  23.77900000 -0.44600000  0.00000000
C        C   C      15.92200000  22.15300000 -1.84600000  0.00000000
O        O   O      15.06700000  22.16100000 -2.77000000  0.00000000
O        O   O      17.22000000  21.59900000 -2.07800000  0.00000000
H        H   H      17.15600000  20.90000000 -2.73400000  0.00000000
