data_Movie_nu1000_modified_1.1.2_100.000000_0.000000_allcomponents

_cell_length_a  39.97000000
_cell_length_b  40.00000000
_cell_length_c  33.16000000
_cell_angle_alpha  90.00000000
_cell_angle_beta   90.00000000
_cell_angle_gamma  120.00000000


_symmetry_space_group_name_Hall ' P 1'
_symmetry_space_group_name_H-M  'P 1'
_symmetry_Int_Tables_number     1

loop_
_atom_site_label
_atom_site_type_symbol
_atom_site_forcefield_label
_atom_site_Cartn_x
_atom_site_Cartn_y
_atom_site_Cartn_z
_atom_site_charge
P        P   P      12.00900000  22.94800000  1.65500000  0.00000000
O        O   O      11.35500000  23.65100000  0.24000000  0.00000000
H        H   H      11.62700000  23.14000000 -0.52500000  0.00000000
O        O   O      11.52700000  23.85800000  3.02000000  0.00000000
H        H   H      11.89400000  23.46300000  3.81400000  0.00000000
O        O   O      11.44000000  21.34300000  1.81000000  0.00000000
C        C   C      13.82700000  22.93900000  1.54300000  0.00000000
H        H   H      14.18200000  23.94300000  1.44700000  0.00000000
H        H   H      14.23600000  22.49900000  2.42900000  0.00000000
N        N   N      14.24100000  22.15700000  0.37100000  0.00000000
H        H   H      13.90800000  21.21800000  0.46100000  0.00000000
C        C   C      15.70800000  22.14900000  0.28100000  0.00000000
H        H   H      16.11800000  21.70800000  1.16600000  0.00000000
H        H   H      16.06500000  23.15300000  0.18300000  0.00000000
C        C   C      16.14300000  21.32900000 -0.94900000  0.00000000
O        O   O      15.39900000  21.27200000 -1.96200000  0.00000000
O        O   O      17.39200000  20.63300000 -0.93800000  0.00000000
H        H   H      17.32600000  19.85000000 -1.49000000  0.00000000
