data_Movie_nu1000_modified_1.1.2_100.000000_0.000000_allcomponents

_cell_length_a  39.97000000
_cell_length_b  40.00000000
_cell_length_c  33.16000000
_cell_angle_alpha  90.00000000
_cell_angle_beta   90.00000000
_cell_angle_gamma  120.00000000


_symmetry_space_group_name_Hall ' P 1'
_symmetry_space_group_name_H-M  'P 1'
_symmetry_Int_Tables_number     1

loop_
_atom_site_label
_atom_site_type_symbol
_atom_site_forcefield_label
_atom_site_Cartn_x
_atom_site_Cartn_y
_atom_site_Cartn_z
_atom_site_charge
P        P   P      12.17600000  23.86800000  3.57600000  0.00000000
O        O   O      11.74200000  24.75500000  2.17900000  0.00000000
H        H   H      12.17600000  24.37500000  1.41200000  0.00000000
O        O   O      11.40500000  24.54500000  4.94300000  0.00000000
H        H   H      11.64800000  24.04600000  5.72700000  0.00000000
O        O   O      11.68700000  22.24000000  3.39100000  0.00000000
C        C   C      13.98200000  23.93700000  3.80100000  0.00000000
H        H   H      14.28700000  24.95600000  3.91600000  0.00000000
H        H   H      14.25300000  23.38200000  4.67500000  0.00000000
N        N   N      14.64500000  23.35600000  2.62600000  0.00000000
H        H   H      14.35900000  22.40400000  2.51800000  0.00000000
C        C   C      16.10200000  23.41100000  2.80800000  0.00000000
H        H   H      16.37400000  22.85600000  3.68200000  0.00000000
H        H   H      16.40900000  24.43000000  2.92300000  0.00000000
C        C   C      16.79800000  22.80300000  1.57600000  0.00000000
O        O   O      16.25100000  22.87400000  0.44500000  0.00000000
O        O   O      18.06500000  22.15500000  1.71800000  0.00000000
H        H   H      18.14600000  21.46300000  1.05700000  0.00000000
