data_Movie_nu1000_modified_1.1.2_100.000000_0.000000_allcomponents

_cell_length_a  39.97000000
_cell_length_b  40.00000000
_cell_length_c  33.16000000
_cell_angle_alpha  90.00000000
_cell_angle_beta   90.00000000
_cell_angle_gamma  120.00000000


_symmetry_space_group_name_Hall ' P 1'
_symmetry_space_group_name_H-M  'P 1'
_symmetry_Int_Tables_number     1

loop_
_atom_site_label
_atom_site_type_symbol
_atom_site_forcefield_label
_atom_site_Cartn_x
_atom_site_Cartn_y
_atom_site_Cartn_z
_atom_site_charge
P        P   P      12.00900000  22.94800000  1.58700000  0.00000000
O        O   O      11.33600000  23.65100000  0.18100000  0.00000000
H        H   H      11.59800000  23.14000000 -0.58800000  0.00000000
O        O   O      11.54500000  23.85800000  2.95800000  0.00000000
H        H   H      11.92300000  23.46300000  3.74700000  0.00000000
O        O   O      11.44200000  21.34300000  1.74900000  0.00000000
C        C   C      13.82500000  22.93900000  1.45100000  0.00000000
H        H   H      14.17900000  23.94300000  1.35000000  0.00000000
H        H   H      14.24600000  22.49900000  2.33200000  0.00000000
N        N   N      14.22400000  22.15700000  0.27300000  0.00000000
H        H   H      13.89200000  21.21800000  0.36800000  0.00000000
C        C   C      15.69000000  22.14900000  0.16400000  0.00000000
H        H   H      16.11100000  21.70800000  1.04300000  0.00000000
H        H   H      16.04500000  23.15300000  0.06200000  0.00000000
C        C   C      16.10800000  21.32900000 -1.07100000  0.00000000
O        O   O      15.35100000  21.27200000 -2.07500000  0.00000000
O        O   O      17.35700000  20.63300000 -1.07700000  0.00000000
H        H   H      17.28400000  19.85000000 -1.62800000  0.00000000
