data_Movie_nu1000_modified_1.1.2_100.000000_0.000000_allcomponents

_cell_length_a  39.97000000
_cell_length_b  40.00000000
_cell_length_c  33.16000000
_cell_angle_alpha  90.00000000
_cell_angle_beta   90.00000000
_cell_angle_gamma  120.00000000


_symmetry_space_group_name_Hall ' P 1'
_symmetry_space_group_name_H-M  'P 1'
_symmetry_Int_Tables_number     1

loop_
_atom_site_label
_atom_site_type_symbol
_atom_site_forcefield_label
_atom_site_Cartn_x
_atom_site_Cartn_y
_atom_site_Cartn_z
_atom_site_charge
P        P   P      12.01300000  22.93700000  1.40900000  0.00000000
O        O   O      11.12000000  23.64500000  0.13300000  0.00000000
H        H   H      11.37500000  23.24000000 -0.69800000  0.00000000
O        O   O      11.56100000  23.66000000  2.89100000  0.00000000
H        H   H      12.06200000  23.26200000  3.60600000  0.00000000
O        O   O      11.68700000  21.25900000  1.46900000  0.00000000
C        C   C      13.79200000  23.20000000  1.12300000  0.00000000
H        H   H      13.99500000  24.24900000  1.08500000  0.00000000
H        H   H      14.35000000  22.75700000  1.92100000  0.00000000
N        N   N      14.18000000  22.57900000 -0.15100000  0.00000000
H        H   H      13.98900000  21.59800000 -0.11600000  0.00000000
C        C   C      15.61600000  22.79000000 -0.38200000  0.00000000
H        H   H      16.17500000  22.34700000  0.41600000  0.00000000
H        H   H      15.82000000  23.84000000 -0.42100000  0.00000000
C        C   C      16.02300000  22.14000000 -1.71700000  0.00000000
O        O   O      15.18900000  22.05400000 -2.65600000  0.00000000
O        O   O      17.34900000  21.63300000 -1.89100000  0.00000000
H        H   H      17.33100000  20.89400000 -2.50300000  0.00000000
