data_Movie_nu1000_modified_1.1.2_100.000000_0.000000_allcomponents

_cell_length_a  39.97000000
_cell_length_b  40.00000000
_cell_length_c  33.16000000
_cell_angle_alpha  90.00000000
_cell_angle_beta   90.00000000
_cell_angle_gamma  120.00000000


_symmetry_space_group_name_Hall ' P 1'
_symmetry_space_group_name_H-M  'P 1'
_symmetry_Int_Tables_number     1

loop_
_atom_site_label
_atom_site_type_symbol
_atom_site_forcefield_label
_atom_site_Cartn_x
_atom_site_Cartn_y
_atom_site_Cartn_z
_atom_site_charge
P        P   P      12.00900000  22.94800000  1.40100000  0.00000000
O        O   O      11.23700000  23.58700000  0.01500000  0.00000000
H        H   H      11.49700000  23.08100000 -0.75800000  0.00000000
O        O   O      11.54700000  23.85000000  2.77800000  0.00000000
H        H   H      11.98000000  23.49100000  3.55500000  0.00000000
O        O   O      11.54900000  21.31400000  1.60800000  0.00000000
C        C   C      13.81500000  23.04800000  1.18800000  0.00000000
H        H   H      14.10200000  24.07000000  1.05900000  0.00000000
H        H   H      14.29800000  22.64800000  2.05600000  0.00000000
N        N   N      14.21300000  22.27300000  0.00500000  0.00000000
H        H   H      13.94300000  21.31800000  0.12600000  0.00000000
C        C   C      15.67000000  22.35300000 -0.16600000  0.00000000
H        H   H      16.15400000  21.95300000  0.70000000  0.00000000
H        H   H      15.95800000  23.37500000 -0.29600000  0.00000000
C        C   C      16.08700000  21.54100000 -1.40700000  0.00000000
O        O   O      15.29400000  21.42200000 -2.37700000  0.00000000
O        O   O      17.37500000  20.92200000 -1.45700000  0.00000000
H        H   H      17.32800000  20.12800000 -1.99400000  0.00000000
