data_Movie_nu1000_modified_1.1.2_100.000000_0.000000_allcomponents

_cell_length_a  39.97000000
_cell_length_b  40.00000000
_cell_length_c  33.16000000
_cell_angle_alpha  90.00000000
_cell_angle_beta   90.00000000
_cell_angle_gamma  120.00000000


_symmetry_space_group_name_Hall ' P 1'
_symmetry_space_group_name_H-M  'P 1'
_symmetry_Int_Tables_number     1

loop_
_atom_site_label
_atom_site_type_symbol
_atom_site_forcefield_label
_atom_site_Cartn_x
_atom_site_Cartn_y
_atom_site_Cartn_z
_atom_site_charge
P        P   P      12.00900000  22.94800000  1.45600000  0.00000000
O        O   O      11.25800000  23.62000000  0.07400000  0.00000000
H        H   H      11.47700000  23.09200000 -0.69700000  0.00000000
O        O   O      11.62100000  23.88800000  2.83000000  0.00000000
H        H   H      12.04200000  23.51100000  3.60500000  0.00000000
O        O   O      11.45300000  21.34700000  1.68500000  0.00000000
C        C   C      13.81400000  22.93600000  1.21900000  0.00000000
H        H   H      14.16100000  23.93700000  1.07600000  0.00000000
H        H   H      14.28400000  22.51600000  2.08500000  0.00000000
N        N   N      14.14900000  22.12800000  0.03800000  0.00000000
H        H   H      13.82300000  21.19200000  0.17200000  0.00000000
C        C   C      15.60600000  22.11700000 -0.15200000  0.00000000
H        H   H      16.07600000  21.69700000  0.71200000  0.00000000
H        H   H      15.95400000  23.11900000 -0.29600000  0.00000000
C        C   C      15.95600000  21.27100000 -1.39000000  0.00000000
O        O   O      15.14400000  21.19100000 -2.34800000  0.00000000
O        O   O      17.20400000  20.57400000 -1.45000000  0.00000000
H        H   H      17.10100000  19.78000000 -1.97900000  0.00000000
