data_Movie_nu1000_modified_1.1.2_100.000000_0.000000_allcomponents

_cell_length_a  39.97000000
_cell_length_b  40.00000000
_cell_length_c  33.16000000
_cell_angle_alpha  90.00000000
_cell_angle_beta   90.00000000
_cell_angle_gamma  120.00000000


_symmetry_space_group_name_Hall ' P 1'
_symmetry_space_group_name_H-M  'P 1'
_symmetry_Int_Tables_number     1

loop_
_atom_site_label
_atom_site_type_symbol
_atom_site_forcefield_label
_atom_site_Cartn_x
_atom_site_Cartn_y
_atom_site_Cartn_z
_atom_site_charge
P        P   P      12.01700000  22.94800000  1.56800000  0.00000000
O        O   O      11.35000000  23.69800000  0.18200000  0.00000000
H        H   H      11.60100000  23.20200000 -0.60000000  0.00000000
O        O   O      11.57300000  23.83100000  2.96300000  0.00000000
H        H   H      11.94700000  23.40900000  3.74000000  0.00000000
O        O   O      11.42400000  21.34900000  1.69100000  0.00000000
C        C   C      13.83200000  22.91300000  1.42400000  0.00000000
H        H   H      14.20200000  23.91300000  1.34600000  0.00000000
H        H   H      14.24900000  22.44400000  2.29100000  0.00000000
N        N   N      14.21400000  22.15400000  0.22400000  0.00000000
H        H   H      13.86700000  21.22000000  0.29700000  0.00000000
C        C   C      15.67800000  22.12500000  0.10800000  0.00000000
H        H   H      16.09600000  21.65600000  0.97500000  0.00000000
H        H   H      16.05000000  23.12600000  0.03000000  0.00000000
C        C   C      16.07900000  21.33100000 -1.14900000  0.00000000
O        O   O      15.31700000  21.31100000 -2.15000000  0.00000000
O        O   O      17.31600000  20.61500000 -1.17800000  0.00000000
H        H   H      17.22800000  19.84800000 -1.74900000  0.00000000
