data_Movie_nu1000_modified_1.1.2_100.000000_0.000000_allcomponents

_cell_length_a  39.97000000
_cell_length_b  40.00000000
_cell_length_c  33.16000000
_cell_angle_alpha  90.00000000
_cell_angle_beta   90.00000000
_cell_angle_gamma  120.00000000


_symmetry_space_group_name_Hall ' P 1'
_symmetry_space_group_name_H-M  'P 1'
_symmetry_Int_Tables_number     1

loop_
_atom_site_label
_atom_site_type_symbol
_atom_site_forcefield_label
_atom_site_Cartn_x
_atom_site_Cartn_y
_atom_site_Cartn_z
_atom_site_charge
P        P   P      12.00900000  22.94800000  1.39900000  0.00000000
O        O   O      11.08400000  23.79000000  0.23300000  0.00000000
H        H   H      11.25000000  23.41900000 -0.63600000  0.00000000
O        O   O      11.71500000  23.61000000  2.94700000  0.00000000
H        H   H      12.23400000  23.13700000  3.60100000  0.00000000
O        O   O      11.56800000  21.29600000  1.39100000  0.00000000
C        C   C      13.77800000  23.10500000  0.99800000  0.00000000
H        H   H      14.05400000  24.13900000  1.00200000  0.00000000
H        H   H      14.35700000  22.57800000  1.72800000  0.00000000
N        N   N      14.03200000  22.53600000 -0.33300000  0.00000000
H        H   H      13.77300000  21.57000000 -0.33700000  0.00000000
C        C   C      15.46000000  22.66200000 -0.65700000  0.00000000
H        H   H      16.03900000  22.13500000  0.07200000  0.00000000
H        H   H      15.73600000  23.69600000 -0.65300000  0.00000000
C        C   C      15.72500000  22.06700000 -2.05200000  0.00000000
O        O   O      14.82400000  22.09400000 -2.93000000  0.00000000
O        O   O      16.99600000  21.48200000 -2.34900000  0.00000000
H        H   H      16.88200000  20.78400000 -2.99900000  0.00000000
