data_Movie_nu1000_modified_1.1.2_100.000000_0.000000_allcomponents

_cell_length_a  39.97000000
_cell_length_b  40.00000000
_cell_length_c  33.16000000
_cell_angle_alpha  90.00000000
_cell_angle_beta   90.00000000
_cell_angle_gamma  120.00000000


_symmetry_space_group_name_Hall ' P 1'
_symmetry_space_group_name_H-M  'P 1'
_symmetry_Int_Tables_number     1

loop_
_atom_site_label
_atom_site_type_symbol
_atom_site_forcefield_label
_atom_site_Cartn_x
_atom_site_Cartn_y
_atom_site_Cartn_z
_atom_site_charge
P        P   P      12.02000000  22.93700000  1.38600000  0.00000000
O        O   O      11.27400000  23.61100000  0.00200000  0.00000000
H        H   H      11.49200000  23.08100000 -0.76800000  0.00000000
O        O   O      11.63400000  23.88100000  2.75800000  0.00000000
H        H   H      12.05200000  23.50200000  3.53400000  0.00000000
O        O   O      11.45600000  21.33900000  1.61500000  0.00000000
C        C   C      13.82500000  22.91600000  1.15200000  0.00000000
H        H   H      14.17700000  23.91600000  1.00800000  0.00000000
H        H   H      14.29200000  22.49500000  2.01800000  0.00000000
N        N   N      14.15800000  22.10500000 -0.02800000  0.00000000
H        H   H      13.82800000  21.17100000  0.10700000  0.00000000
C        C   C      15.61500000  22.08800000 -0.21600000  0.00000000
H        H   H      16.08200000  21.66600000  0.65000000  0.00000000
H        H   H      15.96800000  23.08800000 -0.36000000  0.00000000
C        C   C      15.96300000  21.23800000 -1.45200000  0.00000000
O        O   O      15.15200000  21.16200000 -2.41200000  0.00000000
O        O   O      17.20800000  20.53600000 -1.51000000  0.00000000
H        H   H      17.10200000  19.74100000 -2.03800000  0.00000000
