data_Movie_nu1000_modified_1.1.2_100.000000_0.000000_allcomponents

_cell_length_a  39.97000000
_cell_length_b  40.00000000
_cell_length_c  33.16000000
_cell_angle_alpha  90.00000000
_cell_angle_beta   90.00000000
_cell_angle_gamma  120.00000000


_symmetry_space_group_name_Hall ' P 1'
_symmetry_space_group_name_H-M  'P 1'
_symmetry_Int_Tables_number     1

loop_
_atom_site_label
_atom_site_type_symbol
_atom_site_forcefield_label
_atom_site_Cartn_x
_atom_site_Cartn_y
_atom_site_Cartn_z
_atom_site_charge
P        P   P      12.00900000  22.94800000  1.39900000  0.00000000
O        O   O      11.08900000  23.77100000  0.21500000  0.00000000
H        H   H      11.25300000  23.38000000 -0.64600000  0.00000000
O        O   O      11.71900000  23.64400000  2.93300000  0.00000000
H        H   H      12.23500000  23.18200000  3.59700000  0.00000000
O        O   O      11.55800000  21.29800000  1.42600000  0.00000000
C        C   C      13.77900000  23.08700000  0.99500000  0.00000000
H        H   H      14.06100000  24.11800000  0.97800000  0.00000000
H        H   H      14.35500000  22.57200000  1.73500000  0.00000000
N        N   N      14.02900000  22.48800000 -0.32400000  0.00000000
H        H   H      13.76500000  21.52400000 -0.30800000  0.00000000
C        C   C      15.45800000  22.60000000 -0.65000000  0.00000000
H        H   H      16.03400000  22.08400000  0.09000000  0.00000000
H        H   H      15.74000000  23.63200000 -0.66800000  0.00000000
C        C   C      15.72000000  21.97300000 -2.03200000  0.00000000
O        O   O      14.81900000  21.98700000 -2.91100000  0.00000000
O        O   O      16.98700000  21.37500000 -2.31700000  0.00000000
H        H   H      16.86900000  20.66400000 -2.95200000  0.00000000
