data_Movie_nu1000_modified_1.1.2_100.000000_0.000000_allcomponents

_cell_length_a  39.97000000
_cell_length_b  40.00000000
_cell_length_c  33.16000000
_cell_angle_alpha  90.00000000
_cell_angle_beta   90.00000000
_cell_angle_gamma  120.00000000


_symmetry_space_group_name_Hall ' P 1'
_symmetry_space_group_name_H-M  'P 1'
_symmetry_Int_Tables_number     1

loop_
_atom_site_label
_atom_site_type_symbol
_atom_site_forcefield_label
_atom_site_Cartn_x
_atom_site_Cartn_y
_atom_site_Cartn_z
_atom_site_charge
P        P   P      12.00600000  22.94800000  1.48500000  0.00000000
O        O   O      11.42700000  23.69800000  0.06100000  0.00000000
H        H   H      11.72600000  23.20200000 -0.70500000  0.00000000
O        O   O      11.47600000  23.83100000  2.85000000  0.00000000
H        H   H      11.80100000  23.40900000  3.64900000  0.00000000
O        O   O      11.40600000  21.34900000  1.57200000  0.00000000
C        C   C      13.82600000  22.91300000  1.45500000  0.00000000
H        H   H      14.20100000  23.91300000  1.40100000  0.00000000
H        H   H      14.18800000  22.44400000  2.34600000  0.00000000
N        N   N      14.28200000  22.15400000  0.28200000  0.00000000
H        H   H      13.93100000  21.22000000  0.33200000  0.00000000
C        C   C      15.75100000  22.12500000  0.25700000  0.00000000
H        H   H      16.11400000  21.65600000  1.14800000  0.00000000
H        H   H      16.12700000  23.12600000  0.20300000  0.00000000
C        C   C      16.22900000  21.33100000 -0.97200000  0.00000000
O        O   O      15.53100000  21.31100000 -2.01900000  0.00000000
O        O   O      17.46600000  20.61500000 -0.92400000  0.00000000
H        H   H      17.41400000  19.84800000 -1.49900000  0.00000000
