data_Movie_nu1000_modified_1.1.2_100.000000_0.000000_allcomponents

_cell_length_a  39.97000000
_cell_length_b  40.00000000
_cell_length_c  33.16000000
_cell_angle_alpha  90.00000000
_cell_angle_beta   90.00000000
_cell_angle_gamma  120.00000000


_symmetry_space_group_name_Hall ' P 1'
_symmetry_space_group_name_H-M  'P 1'
_symmetry_Int_Tables_number     1

loop_
_atom_site_label
_atom_site_type_symbol
_atom_site_forcefield_label
_atom_site_Cartn_x
_atom_site_Cartn_y
_atom_site_Cartn_z
_atom_site_charge
P        P   P      12.02500000  22.95600000  1.63200000  0.00000000
O        O   O      11.34600000  23.68700000  0.24300000  0.00000000
H        H   H      11.61600000  23.20100000 -0.53900000  0.00000000
O        O   O      11.54700000  23.82300000  3.02500000  0.00000000
H        H   H      11.92800000  23.41200000  3.80400000  0.00000000
O        O   O      11.47900000  21.34000000  1.75000000  0.00000000
C        C   C      13.84100000  22.97500000  1.49900000  0.00000000
H        H   H      14.18300000  23.98600000  1.42500000  0.00000000
H        H   H      14.26600000  22.51700000  2.36900000  0.00000000
N        N   N      14.25300000  22.22900000  0.30200000  0.00000000
H        H   H      13.93300000  21.28500000  0.37100000  0.00000000
C        C   C      15.71900000  22.24400000  0.19500000  0.00000000
H        H   H      16.14400000  21.78600000  1.06400000  0.00000000
H        H   H      16.06100000  23.25500000  0.12100000  0.00000000
C        C   C      16.15000000  21.46300000 -1.06000000  0.00000000
O        O   O      15.39600000  21.42200000 -2.06600000  0.00000000
O        O   O      17.40900000  20.78400000 -1.08200000  0.00000000
H        H   H      17.34700000  20.01500000 -1.65400000  0.00000000
