data_Movie_nu1000_modified_1.1.2_100.000000_0.000000_allcomponents

_cell_length_a  39.97000000
_cell_length_b  40.00000000
_cell_length_c  33.16000000
_cell_angle_alpha  90.00000000
_cell_angle_beta   90.00000000
_cell_angle_gamma  120.00000000


_symmetry_space_group_name_Hall ' P 1'
_symmetry_space_group_name_H-M  'P 1'
_symmetry_Int_Tables_number     1

loop_
_atom_site_label
_atom_site_type_symbol
_atom_site_forcefield_label
_atom_site_Cartn_x
_atom_site_Cartn_y
_atom_site_Cartn_z
_atom_site_charge
P        P   P      3.18900000  34.66200000  8.05100000  0.00000000
O        O   O      2.31600000  33.75800000  6.89200000  0.00000000
H        H   H      2.79400000  32.95000000  6.69100000  0.00000000
O        O   O      2.34000000  36.10300000  8.40800000  0.00000000
H        H   H      2.83000000  36.61000000  9.05900000  0.00000000
O        O   O      3.36900000  33.73700000  9.47800000  0.00000000
C        C   C      4.83300000  35.07600000  7.38500000  0.00000000
H        H   H      4.71900000  35.65500000  6.49200000  0.00000000
H        H   H      5.37900000  35.64300000  8.11100000  0.00000000
N        N   N      5.56300000  33.83900000  7.07800000  0.00000000
H        H   H      5.66800000  33.29800000  7.91200000  0.00000000
C        C   C      6.88900000  34.17300000  6.54100000  0.00000000
H        H   H      7.43600000  34.73900000  7.26600000  0.00000000
H        H   H      6.77700000  34.75200000  5.64700000  0.00000000
C        C   C      7.65500000  32.87600000  6.21800000  0.00000000
O        O   O      7.02400000  31.84100000  5.87800000  0.00000000
O        O   O      9.08200000  32.84800000  6.30500000  0.00000000
H        H   H      9.37000000  31.96300000  6.54200000  0.00000000
