data_Movie_nu1000_modified_1.1.2_100.000000_0.000000_allcomponents

_cell_length_a  39.97000000
_cell_length_b  40.00000000
_cell_length_c  33.16000000
_cell_angle_alpha  90.00000000
_cell_angle_beta   90.00000000
_cell_angle_gamma  120.00000000


_symmetry_space_group_name_Hall ' P 1'
_symmetry_space_group_name_H-M  'P 1'
_symmetry_Int_Tables_number     1

loop_
_atom_site_label
_atom_site_type_symbol
_atom_site_forcefield_label
_atom_site_Cartn_x
_atom_site_Cartn_y
_atom_site_Cartn_z
_atom_site_charge
P        P   P      12.02500000  22.95600000  1.60200000  0.00000000
O        O   O      11.32300000  23.68700000  0.22400000  0.00000000
H        H   H      11.58000000  23.20100000 -0.56200000  0.00000000
O        O   O      11.56900000  23.82300000  3.00300000  0.00000000
H        H   H      11.96300000  23.41200000  3.77600000  0.00000000
O        O   O      11.48100000  21.34000000  1.72900000  0.00000000
C        C   C      13.83900000  22.97500000  1.44000000  0.00000000
H        H   H      14.17900000  23.98600000  1.36100000  0.00000000
H        H   H      14.27800000  22.51700000  2.30200000  0.00000000
N        N   N      14.23100000  22.22900000  0.23600000  0.00000000
H        H   H      13.91300000  21.28500000  0.31000000  0.00000000
C        C   C      15.69500000  22.24400000  0.10600000  0.00000000
H        H   H      16.13500000  21.78600000  0.96700000  0.00000000
H        H   H      16.03600000  23.25500000  0.02600000  0.00000000
C        C   C      16.10600000  21.46300000 -1.15600000  0.00000000
O        O   O      15.33500000  21.42200000 -2.15000000  0.00000000
O        O   O      17.36400000  20.78400000 -1.19900000  0.00000000
H        H   H      17.29300000  20.01500000 -1.77000000  0.00000000
