data_Movie_nu1000_modified_1.1.2_100.000000_0.000000_allcomponents

_cell_length_a  39.97000000
_cell_length_b  40.00000000
_cell_length_c  33.16000000
_cell_angle_alpha  90.00000000
_cell_angle_beta   90.00000000
_cell_angle_gamma  120.00000000


_symmetry_space_group_name_Hall ' P 1'
_symmetry_space_group_name_H-M  'P 1'
_symmetry_Int_Tables_number     1

loop_
_atom_site_label
_atom_site_type_symbol
_atom_site_forcefield_label
_atom_site_Cartn_x
_atom_site_Cartn_y
_atom_site_Cartn_z
_atom_site_charge
P        P   P      12.01700000  22.94800000  1.78400000  0.00000000
O        O   O      11.26700000  23.65600000  0.42000000  0.00000000
H        H   H      11.52700000  23.17800000 -0.37100000  0.00000000
O        O   O      11.55700000  23.79900000  3.19400000  0.00000000
H        H   H      11.97800000  23.40100000  3.95900000  0.00000000
O        O   O      11.52900000  21.31400000  1.91900000  0.00000000
C        C   C      13.82600000  23.02700000  1.59100000  0.00000000
H        H   H      14.13100000  24.04900000  1.50700000  0.00000000
H        H   H      14.29500000  22.58400000  2.44500000  0.00000000
N        N   N      14.22200000  22.29600000  0.38000000  0.00000000
H        H   H      13.93600000  21.34100000  0.45900000  0.00000000
C        C   C      15.68200000  22.35900000  0.22400000  0.00000000
H        H   H      16.15200000  21.91600000  1.07800000  0.00000000
H        H   H      15.98800000  23.38100000  0.13900000  0.00000000
C        C   C      16.09700000  21.59300000 -1.04600000  0.00000000
O        O   O      15.31100000  21.52700000 -2.02600000  0.00000000
O        O   O      17.37600000  20.95600000 -1.11000000  0.00000000
H        H   H      17.32100000  20.18600000 -1.68100000  0.00000000
