data_Movie_nu1000_modified_1.1.2_100.000000_0.000000_allcomponents

_cell_length_a  39.97000000
_cell_length_b  40.00000000
_cell_length_c  33.16000000
_cell_angle_alpha  90.00000000
_cell_angle_beta   90.00000000
_cell_angle_gamma  120.00000000


_symmetry_space_group_name_Hall ' P 1'
_symmetry_space_group_name_H-M  'P 1'
_symmetry_Int_Tables_number     1

loop_
_atom_site_label
_atom_site_type_symbol
_atom_site_forcefield_label
_atom_site_Cartn_x
_atom_site_Cartn_y
_atom_site_Cartn_z
_atom_site_charge
P        P   P      12.02500000  22.95600000  1.51000000  0.00000000
O        O   O      11.30900000  23.67400000  0.13300000  0.00000000
H        H   H      11.57600000  23.19200000 -0.65300000  0.00000000
O        O   O      11.55300000  23.81500000  2.91100000  0.00000000
H        H   H      11.95500000  23.41100000  3.68400000  0.00000000
O        O   O      11.51200000  21.33000000  1.63700000  0.00000000
C        C   C      13.83800000  23.00900000  1.34800000  0.00000000
H        H   H      14.15900000  24.02700000  1.26900000  0.00000000
H        H   H      14.28600000  22.56000000  2.21100000  0.00000000
N        N   N      14.24500000  22.27200000  0.14400000  0.00000000
H        H   H      13.94400000  21.32100000  0.21900000  0.00000000
C        C   C      15.70800000  22.31400000  0.01400000  0.00000000
H        H   H      16.15600000  21.86500000  0.87600000  0.00000000
H        H   H      16.03000000  23.33200000 -0.06600000  0.00000000
C        C   C      16.13400000  21.54200000 -1.24800000  0.00000000
O        O   O      15.36400000  21.48600000 -2.24200000  0.00000000
O        O   O      17.40500000  20.88600000 -1.29000000  0.00000000
H        H   H      17.34800000  20.11700000 -1.86100000  0.00000000
