data_Movie_nu1000_modified_1.1.2_100.000000_0.000000_allcomponents

_cell_length_a  39.97000000
_cell_length_b  40.00000000
_cell_length_c  33.16000000
_cell_angle_alpha  90.00000000
_cell_angle_beta   90.00000000
_cell_angle_gamma  120.00000000


_symmetry_space_group_name_Hall ' P 1'
_symmetry_space_group_name_H-M  'P 1'
_symmetry_Int_Tables_number     1

loop_
_atom_site_label
_atom_site_type_symbol
_atom_site_forcefield_label
_atom_site_Cartn_x
_atom_site_Cartn_y
_atom_site_Cartn_z
_atom_site_charge
P        P   P      12.02000000  22.93700000  1.38600000  0.00000000
O        O   O      11.24900000  23.61900000  0.02000000  0.00000000
H        H   H      11.44200000  23.08700000 -0.75500000  0.00000000
O        O   O      11.67800000  23.88500000  2.76700000  0.00000000
H        H   H      12.11000000  23.50200000  3.53300000  0.00000000
O        O   O      11.44400000  21.34500000  1.62900000  0.00000000
C        C   C      13.81900000  22.89600000  1.10800000  0.00000000
H        H   H      14.17900000  23.89100000  0.95600000  0.00000000
H        H   H      14.30100000  22.46900000  1.96300000  0.00000000
N        N   N      14.11300000  22.08100000 -0.07800000  0.00000000
H        H   H      13.77600000  21.15100000  0.06400000  0.00000000
C        C   C      15.56600000  22.04700000 -0.30200000  0.00000000
H        H   H      16.04800000  21.62000000  0.55200000  0.00000000
H        H   H      15.92600000  23.04300000 -0.45500000  0.00000000
C        C   C      15.87400000  21.19400000 -1.54600000  0.00000000
O        O   O      15.04000000  21.12600000 -2.48600000  0.00000000
O        O   O      17.10900000  20.47700000 -1.63300000  0.00000000
H        H   H      16.98200000  19.68400000 -2.15900000  0.00000000
