data_Movie_nu1000_modified_1.1.2_100.000000_0.000000_allcomponents

_cell_length_a  39.97000000
_cell_length_b  40.00000000
_cell_length_c  33.16000000
_cell_angle_alpha  90.00000000
_cell_angle_beta   90.00000000
_cell_angle_gamma  120.00000000


_symmetry_space_group_name_Hall ' P 1'
_symmetry_space_group_name_H-M  'P 1'
_symmetry_Int_Tables_number     1

loop_
_atom_site_label
_atom_site_type_symbol
_atom_site_forcefield_label
_atom_site_Cartn_x
_atom_site_Cartn_y
_atom_site_Cartn_z
_atom_site_charge
P        P   P      12.02000000  22.93700000  1.38600000  0.00000000
O        O   O      11.15500000  23.54700000  0.04200000  0.00000000
H        H   H      11.42600000  23.08000000 -0.75100000  0.00000000
O        O   O      11.53900000  23.77000000  2.79900000  0.00000000
H        H   H      12.02400000  23.42700000  3.55300000  0.00000000
O        O   O      11.69000000  21.26900000  1.56600000  0.00000000
C        C   C      13.80500000  23.17800000  1.11700000  0.00000000
H        H   H      14.01000000  24.22100000  1.00500000  0.00000000
H        H   H      14.34600000  22.79600000  1.95800000  0.00000000
N        N   N      14.21800000  22.46200000 -0.09800000  0.00000000
H        H   H      14.02500000  21.48700000  0.00800000  0.00000000
C        C   C      15.65900000  22.65500000 -0.31400000  0.00000000
H        H   H      16.20100000  22.27400000  0.52700000  0.00000000
H        H   H      15.86600000  23.69900000 -0.42700000  0.00000000
C        C   C      16.09300000  21.90600000 -1.58700000  0.00000000
O        O   O      15.27800000  21.74900000 -2.53400000  0.00000000
O        O   O      17.42100000  21.38700000 -1.69400000  0.00000000
H        H   H      17.41500000  20.60400000 -2.25000000  0.00000000
