data_Movie_nu1000_modified_1.1.2_100.000000_0.000000_allcomponents

_cell_length_a  39.97000000
_cell_length_b  40.00000000
_cell_length_c  33.16000000
_cell_angle_alpha  90.00000000
_cell_angle_beta   90.00000000
_cell_angle_gamma  120.00000000


_symmetry_space_group_name_Hall ' P 1'
_symmetry_space_group_name_H-M  'P 1'
_symmetry_Int_Tables_number     1

loop_
_atom_site_label
_atom_site_type_symbol
_atom_site_forcefield_label
_atom_site_Cartn_x
_atom_site_Cartn_y
_atom_site_Cartn_z
_atom_site_charge
P        P   P      12.01700000  22.94800000  1.50700000  0.00000000
O        O   O      11.25200000  23.68900000  0.16900000  0.00000000
H        H   H      11.45700000  23.19700000 -0.62900000  0.00000000
O        O   O      11.65500000  23.82500000  2.93000000  0.00000000
H        H   H      12.08400000  23.40900000  3.68000000  0.00000000
O        O   O      11.45300000  21.34100000  1.66800000  0.00000000
C        C   C      13.81900000  22.93500000  1.24500000  0.00000000
H        H   H      14.17100000  23.94000000  1.14400000  0.00000000
H        H   H      14.29800000  22.47200000  2.08300000  0.00000000
N        N   N      14.13100000  22.18200000  0.02300000  0.00000000
H        H   H      13.80100000  21.24300000  0.11700000  0.00000000
C        C   C      15.58500000  22.17100000 -0.18800000  0.00000000
H        H   H      16.06400000  21.70700000  0.64800000  0.00000000
H        H   H      15.93900000  23.17600000 -0.29000000  0.00000000
C        C   C      15.91200000  21.38200000 -1.47000000  0.00000000
O        O   O      15.08700000  21.35300000 -2.41900000  0.00000000
O        O   O      17.15400000  20.68100000 -1.58000000  0.00000000
H        H   H      17.03900000  19.91300000 -2.14400000  0.00000000
