data_Movie_nu1000_modified_1.1.2_100.000000_0.000000_allcomponents

_cell_length_a  39.97000000
_cell_length_b  40.00000000
_cell_length_c  33.16000000
_cell_angle_alpha  90.00000000
_cell_angle_beta   90.00000000
_cell_angle_gamma  120.00000000


_symmetry_space_group_name_Hall ' P 1'
_symmetry_space_group_name_H-M  'P 1'
_symmetry_Int_Tables_number     1

loop_
_atom_site_label
_atom_site_type_symbol
_atom_site_forcefield_label
_atom_site_Cartn_x
_atom_site_Cartn_y
_atom_site_Cartn_z
_atom_site_charge
P        P   P      12.00900000  22.94800000  1.40100000  0.00000000
O        O   O      11.27300000  23.62900000  0.01500000  0.00000000
H        H   H      11.50500000  23.10900000 -0.75800000  0.00000000
O        O   O      11.59800000  23.87400000  2.77800000  0.00000000
H        H   H      12.01100000  23.49100000  3.55500000  0.00000000
O        O   O      11.45900000  21.34200000  1.60800000  0.00000000
C        C   C      13.81800000  22.94700000  1.18800000  0.00000000
H        H   H      14.16100000  23.95200000  1.05900000  0.00000000
H        H   H      14.27800000  22.52100000  2.05600000  0.00000000
N        N   N      14.17200000  22.15200000  0.00500000  0.00000000
H        H   H      13.85000000  21.21300000  0.12600000  0.00000000
C        C   C      15.63100000  22.15000000 -0.16600000  0.00000000
H        H   H      16.09200000  21.72400000  0.70000000  0.00000000
H        H   H      15.97600000  23.15500000 -0.29600000  0.00000000
C        C   C      16.00200000  21.31700000 -1.40700000  0.00000000
O        O   O      15.20400000  21.24200000 -2.37700000  0.00000000
O        O   O      17.25400000  20.62700000 -1.45700000  0.00000000
H        H   H      17.16300000  19.83700000 -1.99400000  0.00000000
