data_Movie_nu1000_modified_1.1.2_100.000000_0.000000_allcomponents

_cell_length_a  39.97000000
_cell_length_b  40.00000000
_cell_length_c  33.16000000
_cell_angle_alpha  90.00000000
_cell_angle_beta   90.00000000
_cell_angle_gamma  120.00000000


_symmetry_space_group_name_Hall ' P 1'
_symmetry_space_group_name_H-M  'P 1'
_symmetry_Int_Tables_number     1

loop_
_atom_site_label
_atom_site_type_symbol
_atom_site_forcefield_label
_atom_site_Cartn_x
_atom_site_Cartn_y
_atom_site_Cartn_z
_atom_site_charge
P        P   P      12.00900000  22.93700000  1.39900000  0.00000000
O        O   O      11.08100000  23.78000000  0.23400000  0.00000000
H        H   H      11.24600000  23.40800000 -0.63500000  0.00000000
O        O   O      11.71800000  23.59900000  2.94800000  0.00000000
H        H   H      12.23800000  23.12600000  3.60100000  0.00000000
O        O   O      11.56800000  21.28500000  1.39200000  0.00000000
C        C   C      13.77700000  23.09400000  0.99400000  0.00000000
H        H   H      14.05300000  24.12800000  0.99800000  0.00000000
H        H   H      14.35800000  22.56700000  1.72300000  0.00000000
N        N   N      14.02800000  22.52600000 -0.33700000  0.00000000
H        H   H      13.77000000  21.56000000 -0.34100000  0.00000000
C        C   C      15.45600000  22.65200000 -0.66400000  0.00000000
H        H   H      16.03600000  22.12400000  0.06400000  0.00000000
H        H   H      15.73200000  23.68600000 -0.66000000  0.00000000
C        C   C      15.71800000  22.05600000 -2.05900000  0.00000000
O        O   O      14.81500000  22.08300000 -2.93500000  0.00000000
O        O   O      16.98800000  21.47100000 -2.35900000  0.00000000
H        H   H      16.87300000  20.77300000 -3.00800000  0.00000000
