data_Movie_nu1000_modified_1.1.2_100.000000_0.000000_allcomponents

_cell_length_a  39.97000000
_cell_length_b  40.00000000
_cell_length_c  33.16000000
_cell_angle_alpha  90.00000000
_cell_angle_beta   90.00000000
_cell_angle_gamma  120.00000000


_symmetry_space_group_name_Hall ' P 1'
_symmetry_space_group_name_H-M  'P 1'
_symmetry_Int_Tables_number     1

loop_
_atom_site_label
_atom_site_type_symbol
_atom_site_forcefield_label
_atom_site_Cartn_x
_atom_site_Cartn_y
_atom_site_Cartn_z
_atom_site_charge
P        P   P      12.00900000  22.94800000  1.58200000  0.00000000
O        O   O      11.34100000  23.62900000  0.16200000  0.00000000
H        H   H      11.61100000  23.10900000 -0.59800000  0.00000000
O        O   O      11.53200000  23.87400000  2.93800000  0.00000000
H        H   H      11.90600000  23.49100000  3.73400000  0.00000000
O        O   O      11.44900000  21.34200000  1.76200000  0.00000000
C        C   C      13.82600000  22.94700000  1.45800000  0.00000000
H        H   H      14.17500000  23.95200000  1.34500000  0.00000000
H        H   H      14.24400000  22.52100000  2.34600000  0.00000000
N        N   N      14.23700000  22.15200000  0.29300000  0.00000000
H        H   H      13.90900000  21.21300000  0.39800000  0.00000000
C        C   C      15.70300000  22.15000000  0.19300000  0.00000000
H        H   H      16.12100000  21.72400000  1.08100000  0.00000000
H        H   H      16.05400000  23.15500000  0.07900000  0.00000000
C        C   C      16.13400000  21.31700000 -1.02900000  0.00000000
O        O   O      15.38300000  21.24200000 -2.03600000  0.00000000
O        O   O      17.38700000  20.62700000 -1.01800000  0.00000000
H        H   H      17.32200000  19.83700000 -1.55900000  0.00000000
