data_Movie_nu1000_modified_1.1.2_100.000000_0.000000_allcomponents

_cell_length_a  39.97000000
_cell_length_b  40.00000000
_cell_length_c  33.16000000
_cell_angle_alpha  90.00000000
_cell_angle_beta   90.00000000
_cell_angle_gamma  120.00000000


_symmetry_space_group_name_Hall ' P 1'
_symmetry_space_group_name_H-M  'P 1'
_symmetry_Int_Tables_number     1

loop_
_atom_site_label
_atom_site_type_symbol
_atom_site_forcefield_label
_atom_site_Cartn_x
_atom_site_Cartn_y
_atom_site_Cartn_z
_atom_site_charge
P        P   P      12.00900000  22.94800000  1.45700000  0.00000000
O        O   O      11.31600000  23.62800000  0.04900000  0.00000000
H        H   H      11.57700000  23.11100000 -0.71600000  0.00000000
O        O   O      11.54800000  23.86900000  2.82200000  0.00000000
H        H   H      11.93600000  23.48700000  3.61200000  0.00000000
O        O   O      11.46000000  21.33900000  1.64300000  0.00000000
C        C   C      13.82400000  22.95600000  1.30500000  0.00000000
H        H   H      14.16600000  23.96300000  1.18900000  0.00000000
H        H   H      14.25700000  22.53100000  2.18700000  0.00000000
N        N   N      14.22100000  22.16500000  0.13300000  0.00000000
H        H   H      13.90000000  21.22400000  0.24100000  0.00000000
C        C   C      15.68500000  22.17100000  0.01100000  0.00000000
H        H   H      16.11900000  21.74500000  0.89100000  0.00000000
H        H   H      16.02900000  23.17800000 -0.10600000  0.00000000
C        C   C      16.10200000  21.34200000 -1.21900000  0.00000000
O        O   O      15.33600000  21.26500000 -2.21500000  0.00000000
O        O   O      17.35800000  20.65900000 -1.22800000  0.00000000
H        H   H      17.28900000  19.86900000 -1.77000000  0.00000000
