data_Movie_nu1000_modified_1.1.2_100.000000_0.000000_allcomponents

_cell_length_a  39.97000000
_cell_length_b  40.00000000
_cell_length_c  33.16000000
_cell_angle_alpha  90.00000000
_cell_angle_beta   90.00000000
_cell_angle_gamma  120.00000000


_symmetry_space_group_name_Hall ' P 1'
_symmetry_space_group_name_H-M  'P 1'
_symmetry_Int_Tables_number     1

loop_
_atom_site_label
_atom_site_type_symbol
_atom_site_forcefield_label
_atom_site_Cartn_x
_atom_site_Cartn_y
_atom_site_Cartn_z
_atom_site_charge
P        P   P      12.01700000  22.94800000  1.62500000  0.00000000
O        O   O      11.33300000  23.67900000  0.23900000  0.00000000
H        H   H      11.60000000  23.19200000 -0.54400000  0.00000000
O        O   O      11.54300000  23.81500000  3.02100000  0.00000000
H        H   H      11.92700000  23.40400000  3.79800000  0.00000000
O        O   O      11.47100000  21.33200000  1.74500000  0.00000000
C        C   C      13.83300000  22.96700000  1.48700000  0.00000000
H        H   H      14.17400000  23.97700000  1.41200000  0.00000000
H        H   H      14.26100000  22.50900000  2.35500000  0.00000000
N        N   N      14.24000000  22.22100000  0.28800000  0.00000000
H        H   H      13.92100000  21.27700000  0.35800000  0.00000000
C        C   C      15.70600000  22.23600000  0.17700000  0.00000000
H        H   H      16.13400000  21.77800000  1.04400000  0.00000000
H        H   H      16.04800000  23.24700000  0.10100000  0.00000000
C        C   C      16.13300000  21.45500000 -1.08000000  0.00000000
O        O   O      15.37500000  21.41400000 -2.08400000  0.00000000
O        O   O      17.39100000  20.77600000 -1.10600000  0.00000000
H        H   H      17.32800000  20.00700000 -1.67800000  0.00000000
