data_Movie_nu1000_modified_1.1.2_100.000000_0.000000_allcomponents

_cell_length_a  39.97000000
_cell_length_b  40.00000000
_cell_length_c  33.16000000
_cell_angle_alpha  90.00000000
_cell_angle_beta   90.00000000
_cell_angle_gamma  120.00000000


_symmetry_space_group_name_Hall ' P 1'
_symmetry_space_group_name_H-M  'P 1'
_symmetry_Int_Tables_number     1

loop_
_atom_site_label
_atom_site_type_symbol
_atom_site_forcefield_label
_atom_site_Cartn_x
_atom_site_Cartn_y
_atom_site_Cartn_z
_atom_site_charge
P        P   P      12.06500000  22.95600000  1.76900000  0.00000000
O        O   O      11.80900000  23.65600000  0.23000000  0.00000000
H        H   H      12.32300000  23.18100000 -0.42700000  0.00000000
O        O   O      11.15100000  23.80200000  2.94000000  0.00000000
H        H   H      11.29500000  23.40900000  3.80300000  0.00000000
O        O   O      11.57600000  21.31800000  1.73800000  0.00000000
C        C   C      13.83300000  23.05400000  2.19200000  0.00000000
H        H   H      14.13900000  24.07900000  2.21100000  0.00000000
H        H   H      13.99400000  22.61600000  3.15600000  0.00000000
N        N   N      14.61900000  22.32700000  1.18600000  0.00000000
H        H   H      14.33300000  21.36900000  1.16800000  0.00000000
C        C   C      16.04600000  22.40500000  1.52900000  0.00000000
H        H   H      16.20700000  21.96700000  2.49100000  0.00000000
H        H   H      16.35300000  23.43100000  1.54700000  0.00000000
C        C   C      16.87000000  21.64400000  0.47400000  0.00000000
O        O   O      16.45900000  21.56900000 -0.71300000  0.00000000
O        O   O      18.10300000  21.02000000  0.84300000  0.00000000
H        H   H      18.25000000  20.24900000  0.29000000  0.00000000
