data_Movie_nu1000_modified_1.1.2_100.000000_0.000000_allcomponents

_cell_length_a  39.97000000
_cell_length_b  40.00000000
_cell_length_c  33.16000000
_cell_angle_alpha  90.00000000
_cell_angle_beta   90.00000000
_cell_angle_gamma  120.00000000


_symmetry_space_group_name_Hall ' P 1'
_symmetry_space_group_name_H-M  'P 1'
_symmetry_Int_Tables_number     1

loop_
_atom_site_label
_atom_site_type_symbol
_atom_site_forcefield_label
_atom_site_Cartn_x
_atom_site_Cartn_y
_atom_site_Cartn_z
_atom_site_charge
P        P   P      12.01700000  22.94800000  1.71400000  0.00000000
O        O   O      11.11000000  23.66700000  0.45600000  0.00000000
H        H   H      11.25900000  23.18600000 -0.36100000  0.00000000
O        O   O      11.75400000  23.80600000  3.17000000  0.00000000
H        H   H      12.26200000  23.40200000  3.87600000  0.00000000
O        O   O      11.52600000  21.32200000  1.91400000  0.00000000
C        C   C      13.78800000  22.99900000  1.29200000  0.00000000
H        H   H      14.09500000  24.01600000  1.16800000  0.00000000
H        H   H      14.35500000  22.54900000  2.08000000  0.00000000
N        N   N      14.01500000  22.26200000  0.04100000  0.00000000
H        H   H      13.72700000  21.31200000  0.15800000  0.00000000
C        C   C      15.44400000  22.30300000 -0.29900000  0.00000000
H        H   H      16.01100000  21.85200000  0.48800000  0.00000000
H        H   H      15.75200000  23.32000000 -0.42400000  0.00000000
C        C   C      15.68100000  21.53100000 -1.61000000  0.00000000
O        O   O      14.77600000  21.47700000 -2.48200000  0.00000000
O        O   O      16.93200000  20.87400000 -1.83600000  0.00000000
H        H   H      16.79300000  20.10500000 -2.39300000  0.00000000
