data_Movie_nu1000_modified_1.1.2_100.000000_0.000000_allcomponents

_cell_length_a  39.97000000
_cell_length_b  40.00000000
_cell_length_c  33.16000000
_cell_angle_alpha  90.00000000
_cell_angle_beta   90.00000000
_cell_angle_gamma  120.00000000


_symmetry_space_group_name_Hall ' P 1'
_symmetry_space_group_name_H-M  'P 1'
_symmetry_Int_Tables_number     1

loop_
_atom_site_label
_atom_site_type_symbol
_atom_site_forcefield_label
_atom_site_Cartn_x
_atom_site_Cartn_y
_atom_site_Cartn_z
_atom_site_charge
P        P   P      12.01700000  22.94800000  1.56800000  0.00000000
O        O   O      11.39500000  23.69800000  0.16200000  0.00000000
H        H   H      11.67000000  23.20200000 -0.61300000  0.00000000
O        O   O      11.52900000  23.83100000  2.94800000  0.00000000
H        H   H      11.87800000  23.40900000  3.73700000  0.00000000
O        O   O      11.42000000  21.34900000  1.67200000  0.00000000
C        C   C      13.83600000  22.91300000  1.48200000  0.00000000
H        H   H      14.20800000  23.91300000  1.41600000  0.00000000
H        H   H      14.22500000  22.44400000  2.36200000  0.00000000
N        N   N      14.25600000  22.15400000  0.29500000  0.00000000
H        H   H      13.90600000  21.22000000  0.35700000  0.00000000
C        C   C      15.72300000  22.12500000  0.22600000  0.00000000
H        H   H      16.11300000  21.65600000  1.10600000  0.00000000
H        H   H      16.09700000  23.12600000  0.16000000  0.00000000
C        C   C      16.16300000  21.33100000 -1.01800000  0.00000000
O        O   O      15.43400000  21.31100000 -2.04300000  0.00000000
O        O   O      17.40100000  20.61500000 -1.00700000  0.00000000
H        H   H      17.33200000  19.84800000 -1.58000000  0.00000000
