data_Movie_nu1000_modified_1.1.2_100.000000_0.000000_allcomponents

_cell_length_a  39.97000000
_cell_length_b  40.00000000
_cell_length_c  33.16000000
_cell_angle_alpha  90.00000000
_cell_angle_beta   90.00000000
_cell_angle_gamma  120.00000000


_symmetry_space_group_name_Hall ' P 1'
_symmetry_space_group_name_H-M  'P 1'
_symmetry_Int_Tables_number     1

loop_
_atom_site_label
_atom_site_type_symbol
_atom_site_forcefield_label
_atom_site_Cartn_x
_atom_site_Cartn_y
_atom_site_Cartn_z
_atom_site_charge
P        P   P      12.00900000  22.94800000  1.56900000  0.00000000
O        O   O      11.25100000  23.62800000  0.19500000  0.00000000
H        H   H      11.47400000  23.11100000 -0.58200000  0.00000000
O        O   O      11.61300000  23.86900000  2.95400000  0.00000000
H        H   H      12.03800000  23.48700000  3.72400000  0.00000000
O        O   O      11.47000000  21.33900000  1.78000000  0.00000000
C        C   C      13.81400000  22.95600000  1.33100000  0.00000000
H        H   H      14.15100000  23.96300000  1.19900000  0.00000000
H        H   H      14.28900000  22.53100000  2.19100000  0.00000000
N        N   N      14.15600000  22.16500000  0.14100000  0.00000000
H        H   H      13.84000000  21.22400000  0.26500000  0.00000000
C        C   C      15.61300000  22.17100000 -0.05000000  0.00000000
H        H   H      16.08800000  21.74500000  0.80900000  0.00000000
H        H   H      15.95100000  23.17800000 -0.18300000  0.00000000
C        C   C      15.97000000  21.34200000 -1.29800000  0.00000000
O        O   O      15.15900000  21.26500000 -2.25700000  0.00000000
O        O   O      17.22500000  20.65900000 -1.36700000  0.00000000
H        H   H      17.13000000  19.86900000 -1.90400000  0.00000000
