data_Movie_nu1000_modified_1.1.2_100.000000_0.000000_allcomponents

_cell_length_a  39.97000000
_cell_length_b  40.00000000
_cell_length_c  33.16000000
_cell_angle_alpha  90.00000000
_cell_angle_beta   90.00000000
_cell_angle_gamma  120.00000000


_symmetry_space_group_name_Hall ' P 1'
_symmetry_space_group_name_H-M  'P 1'
_symmetry_Int_Tables_number     1

loop_
_atom_site_label
_atom_site_type_symbol
_atom_site_forcefield_label
_atom_site_Cartn_x
_atom_site_Cartn_y
_atom_site_Cartn_z
_atom_site_charge
P        P   P      12.00600000  22.94800000  1.46900000  0.00000000
O        O   O      11.41900000  23.69100000  0.04500000  0.00000000
H        H   H      11.72300000  23.19900000 -0.72000000  0.00000000
O        O   O      11.46600000  23.82500000  2.83500000  0.00000000
H        H   H      11.79600000  23.40700000  3.63300000  0.00000000
O        O   O      11.42400000  21.34200000  1.55600000  0.00000000
C        C   C      13.82600000  22.93300000  1.43900000  0.00000000
H        H   H      14.19000000  23.93700000  1.38500000  0.00000000
H        H   H      14.19400000  22.46800000  2.33100000  0.00000000
N        N   N      14.29100000  22.17900000  0.26600000  0.00000000
H        H   H      13.95000000  21.24100000  0.31700000  0.00000000
C        C   C      15.76000000  22.16600000  0.24200000  0.00000000
H        H   H      16.12800000  21.70100000  1.13300000  0.00000000
H        H   H      16.12500000  23.17100000  0.18700000  0.00000000
C        C   C      16.24600000  21.37700000 -0.98800000  0.00000000
O        O   O      15.54900000  21.35000000 -2.03500000  0.00000000
O        O   O      17.49100000  20.67400000 -0.94000000  0.00000000
H        H   H      17.44700000  19.90700000 -1.51500000  0.00000000
