data_Movie_nu1000_modified_1.1.2_100.000000_0.000000_allcomponents

_cell_length_a  39.97000000
_cell_length_b  40.00000000
_cell_length_c  33.16000000
_cell_angle_alpha  90.00000000
_cell_angle_beta   90.00000000
_cell_angle_gamma  120.00000000


_symmetry_space_group_name_Hall ' P 1'
_symmetry_space_group_name_H-M  'P 1'
_symmetry_Int_Tables_number     1

loop_
_atom_site_label
_atom_site_type_symbol
_atom_site_forcefield_label
_atom_site_Cartn_x
_atom_site_Cartn_y
_atom_site_Cartn_z
_atom_site_charge
P        P   P      12.02500000  22.95600000  1.68300000  0.00000000
O        O   O      11.35300000  23.65600000  0.27500000  0.00000000
H        H   H      11.66600000  23.18100000 -0.49800000  0.00000000
O        O   O      11.47100000  23.80200000  3.06200000  0.00000000
H        H   H      11.84800000  23.40900000  3.85100000  0.00000000
O        O   O      11.54700000  21.31800000  1.78900000  0.00000000
C        C   C      13.84200000  23.05400000  1.60100000  0.00000000
H        H   H      14.14000000  24.07900000  1.53500000  0.00000000
H        H   H      14.26200000  22.61600000  2.48300000  0.00000000
N        N   N      14.31900000  22.32700000  0.41700000  0.00000000
H        H   H      14.03900000  21.36900000  0.47900000  0.00000000
C        C   C      15.78500000  22.40500000  0.35100000  0.00000000
H        H   H      16.20600000  21.96700000  1.23200000  0.00000000
H        H   H      16.08500000  23.43100000  0.28400000  0.00000000
C        C   C      16.28500000  21.64400000 -0.89100000  0.00000000
O        O   O      15.56100000  21.56900000 -1.91700000  0.00000000
O        O   O      17.57200000  21.02000000 -0.87600000  0.00000000
H        H   H      17.56000000  20.24900000 -1.44800000  0.00000000
