data_Movie_nu1000_modified_1.1.2_100.000000_0.000000_allcomponents

_cell_length_a  39.97000000
_cell_length_b  40.00000000
_cell_length_c  33.16000000
_cell_angle_alpha  90.00000000
_cell_angle_beta   90.00000000
_cell_angle_gamma  120.00000000


_symmetry_space_group_name_Hall ' P 1'
_symmetry_space_group_name_H-M  'P 1'
_symmetry_Int_Tables_number     1

loop_
_atom_site_label
_atom_site_type_symbol
_atom_site_forcefield_label
_atom_site_Cartn_x
_atom_site_Cartn_y
_atom_site_Cartn_z
_atom_site_charge
P        P   P      12.02500000  22.95600000  1.66500000  0.00000000
O        O   O      11.34100000  23.66500000  0.26700000  0.00000000
H        H   H      11.63600000  23.18600000 -0.51100000  0.00000000
O        O   O      11.50300000  23.80900000  3.05100000  0.00000000
H        H   H      11.88700000  23.41100000  3.83500000  0.00000000
O        O   O      11.52700000  21.32400000  1.77800000  0.00000000
C        C   C      13.84100000  23.03000000  1.55500000  0.00000000
H        H   H      14.15200000  24.05100000  1.48400000  0.00000000
H        H   H      14.26900000  22.58700000  2.43000000  0.00000000
N        N   N      14.29100000  22.29700000  0.36400000  0.00000000
H        H   H      13.99900000  21.34300000  0.43000000  0.00000000
C        C   C      15.75700000  22.35600000  0.27600000  0.00000000
H        H   H      16.18500000  21.91200000  1.15000000  0.00000000
H        H   H      16.06900000  23.37700000  0.20400000  0.00000000
C        C   C      16.22800000  21.58800000 -0.97300000  0.00000000
O        O   O      15.48700000  21.52400000 -1.98900000  0.00000000
O        O   O      17.50600000  20.94800000 -0.97900000  0.00000000
H        H   H      17.47600000  20.17700000 -1.55000000  0.00000000
