data_Movie_nu1000_modified_1.1.2_100.000000_0.000000_allcomponents

_cell_length_a  39.97000000
_cell_length_b  40.00000000
_cell_length_c  33.16000000
_cell_angle_alpha  90.00000000
_cell_angle_beta   90.00000000
_cell_angle_gamma  120.00000000


_symmetry_space_group_name_Hall ' P 1'
_symmetry_space_group_name_H-M  'P 1'
_symmetry_Int_Tables_number     1

loop_
_atom_site_label
_atom_site_type_symbol
_atom_site_forcefield_label
_atom_site_Cartn_x
_atom_site_Cartn_y
_atom_site_Cartn_z
_atom_site_charge
P        P   P      12.02300000  22.93700000  1.60400000  0.00000000
O        O   O      11.29100000  23.61300000  0.21400000  0.00000000
H        H   H      11.51400000  23.08200000 -0.55400000  0.00000000
O        O   O      11.62800000  23.88200000  2.97300000  0.00000000
H        H   H      12.03800000  23.50300000  3.75300000  0.00000000
O        O   O      11.45200000  21.34100000  1.82900000  0.00000000
C        C   C      13.83000000  22.91100000  1.38600000  0.00000000
H        H   H      14.18600000  23.90900000  1.24500000  0.00000000
H        H   H      14.28800000  22.48800000  2.25600000  0.00000000
N        N   N      14.17000000  22.09900000  0.20900000  0.00000000
H        H   H      13.83600000  21.16500000  0.34100000  0.00000000
C        C   C      15.62900000  22.07600000  0.03400000  0.00000000
H        H   H      16.08700000  21.65300000  0.90300000  0.00000000
H        H   H      15.98600000  23.07500000 -0.10800000  0.00000000
C        C   C      15.98500000  21.22600000 -1.20000000  0.00000000
O        O   O      15.18200000  21.15100000 -2.16600000  0.00000000
O        O   O      17.22800000  20.52000000 -1.24600000  0.00000000
H        H   H      17.12400000  19.72500000 -1.77500000  0.00000000
