data_Movie_nu1000_modified_1.1.2_100.000000_0.000000_allcomponents

_cell_length_a  39.97000000
_cell_length_b  40.00000000
_cell_length_c  33.16000000
_cell_angle_alpha  90.00000000
_cell_angle_beta   90.00000000
_cell_angle_gamma  120.00000000


_symmetry_space_group_name_Hall ' P 1'
_symmetry_space_group_name_H-M  'P 1'
_symmetry_Int_Tables_number     1

loop_
_atom_site_label
_atom_site_type_symbol
_atom_site_forcefield_label
_atom_site_Cartn_x
_atom_site_Cartn_y
_atom_site_Cartn_z
_atom_site_charge
P        P   P      12.02000000  22.93700000  1.33800000  0.00000000
O        O   O      11.37900000  23.61300000 -0.09700000  0.00000000
H        H   H      11.65100000  23.08200000 -0.84900000  0.00000000
O        O   O      11.53800000  23.88200000  2.67900000  0.00000000
H        H   H      11.89700000  23.50300000  3.48300000  0.00000000
O        O   O      11.43600000  21.34100000  1.52600000  0.00000000
C        C   C      13.83800000  22.91100000  1.23600000  0.00000000
H        H   H      14.20200000  23.90900000  1.11900000  0.00000000
H        H   H      14.23800000  22.48800000  2.13400000  0.00000000
N        N   N      14.25200000  22.09900000  0.08400000  0.00000000
H        H   H      13.91100000  21.16500000  0.19400000  0.00000000
C        C   C      15.71900000  22.07600000  0.00200000  0.00000000
H        H   H      16.12100000  21.65300000  0.90000000  0.00000000
H        H   H      16.08500000  23.07500000 -0.11600000  0.00000000
C        C   C      16.15400000  21.22600000 -1.20600000  0.00000000
O        O   O      15.41500000  21.15100000 -2.22100000  0.00000000
O        O   O      17.39700000  20.52000000 -1.17200000  0.00000000
H        H   H      17.32800000  19.72500000 -1.70700000  0.00000000
