data_Movie_nu1000_modified_1.1.2_100.000000_0.000000_allcomponents

_cell_length_a  39.97000000
_cell_length_b  40.00000000
_cell_length_c  33.16000000
_cell_angle_alpha  90.00000000
_cell_angle_beta   90.00000000
_cell_angle_gamma  120.00000000


_symmetry_space_group_name_Hall ' P 1'
_symmetry_space_group_name_H-M  'P 1'
_symmetry_Int_Tables_number     1

loop_
_atom_site_label
_atom_site_type_symbol
_atom_site_forcefield_label
_atom_site_Cartn_x
_atom_site_Cartn_y
_atom_site_Cartn_z
_atom_site_charge
P        P   P      12.01300000  22.93700000  1.40900000  0.00000000
O        O   O      11.17500000  23.78100000  0.17900000  0.00000000
H        H   H      11.40500000  23.41100000 -0.67600000  0.00000000
O        O   O      11.60600000  23.59700000  2.93300000  0.00000000
H        H   H      12.07600000  23.12300000  3.62200000  0.00000000
O        O   O      11.57300000  21.28500000  1.36700000  0.00000000
C        C   C      13.80700000  23.09500000  1.13900000  0.00000000
H        H   H      14.08100000  24.12800000  1.16500000  0.00000000
H        H   H      14.33000000  22.56700000  1.90800000  0.00000000
N        N   N      14.15700000  22.52800000 -0.17100000  0.00000000
H        H   H      13.89900000  21.56200000 -0.19500000  0.00000000
C        C   C      15.60400000  22.65400000 -0.38900000  0.00000000
H        H   H      16.12900000  22.12600000  0.38000000  0.00000000
H        H   H      15.88000000  23.68800000 -0.36300000  0.00000000
C        C   C      15.97100000  22.06100000 -1.76200000  0.00000000
O        O   O      15.13700000  22.08900000 -2.70300000  0.00000000
O        O   O      17.26000000  21.47600000 -1.96600000  0.00000000
H        H   H      17.19400000  20.77900000 -2.62300000  0.00000000
