data_Movie_nu1000_modified_1.1.2_100.000000_0.000000_allcomponents

_cell_length_a  39.97000000
_cell_length_b  40.00000000
_cell_length_c  33.16000000
_cell_angle_alpha  90.00000000
_cell_angle_beta   90.00000000
_cell_angle_gamma  120.00000000


_symmetry_space_group_name_Hall ' P 1'
_symmetry_space_group_name_H-M  'P 1'
_symmetry_Int_Tables_number     1

loop_
_atom_site_label
_atom_site_type_symbol
_atom_site_forcefield_label
_atom_site_Cartn_x
_atom_site_Cartn_y
_atom_site_Cartn_z
_atom_site_charge
P        P   P      12.01300000  22.93700000  1.40900000  0.00000000
O        O   O      11.14900000  23.78100000  0.19800000  0.00000000
H        H   H      11.36000000  23.41100000 -0.66200000  0.00000000
O        O   O      11.63900000  23.59700000  2.94100000  0.00000000
H        H   H      12.12300000  23.12300000  3.62000000  0.00000000
O        O   O      11.57200000  21.28500000  1.37600000  0.00000000
C        C   C      13.80000000  23.09500000  1.10000000  0.00000000
H        H   H      14.07500000  24.12800000  1.12000000  0.00000000
H        H   H      14.34100000  22.56700000  1.85800000  0.00000000
N        N   N      14.12200000  22.52800000 -0.21700000  0.00000000
H        H   H      13.86400000  21.56200000 -0.23600000  0.00000000
C        C   C      15.56500000  22.65400000 -0.46600000  0.00000000
H        H   H      16.10600000  22.12600000  0.29200000  0.00000000
H        H   H      15.84100000  23.68800000 -0.44600000  0.00000000
C        C   C      15.90200000  22.06100000 -1.84600000  0.00000000
O        O   O      15.04800000  22.08900000 -2.77000000  0.00000000
O        O   O      17.18600000  21.47600000 -2.07800000  0.00000000
H        H   H      17.10600000  20.77900000 -2.73400000  0.00000000
