data_Movie_nu1000_modified_1.1.2_100.000000_0.000000_allcomponents

_cell_length_a  39.97000000
_cell_length_b  40.00000000
_cell_length_c  33.16000000
_cell_angle_alpha  90.00000000
_cell_angle_beta   90.00000000
_cell_angle_gamma  120.00000000


_symmetry_space_group_name_Hall ' P 1'
_symmetry_space_group_name_H-M  'P 1'
_symmetry_Int_Tables_number     1

loop_
_atom_site_label
_atom_site_type_symbol
_atom_site_forcefield_label
_atom_site_Cartn_x
_atom_site_Cartn_y
_atom_site_Cartn_z
_atom_site_charge
P        P   P      12.01700000  22.94800000  1.56800000  0.00000000
O        O   O      11.43800000  23.69800000  0.14300000  0.00000000
H        H   H      11.73700000  23.20200000 -0.62200000  0.00000000
O        O   O      11.48700000  23.83100000  2.93300000  0.00000000
H        H   H      11.81200000  23.40900000  3.73100000  0.00000000
O        O   O      11.41700000  21.34900000  1.65400000  0.00000000
C        C   C      13.83700000  22.91300000  1.53700000  0.00000000
H        H   H      14.21200000  23.91300000  1.48300000  0.00000000
H        H   H      14.20000000  22.44400000  2.42900000  0.00000000
N        N   N      14.29300000  22.15400000  0.36400000  0.00000000
H        H   H      13.94200000  21.22000000  0.41500000  0.00000000
C        C   C      15.76200000  22.12500000  0.34000000  0.00000000
H        H   H      16.12500000  21.65600000  1.23100000  0.00000000
H        H   H      16.13800000  23.12600000  0.28500000  0.00000000
C        C   C      16.24000000  21.33100000 -0.89000000  0.00000000
O        O   O      15.54200000  21.31100000 -1.93700000  0.00000000
O        O   O      17.47700000  20.61500000 -0.84200000  0.00000000
H        H   H      17.42500000  19.84800000 -1.41700000  0.00000000
