data_Movie_nu1000_modified_1.1.2_100.000000_0.000000_allcomponents

_cell_length_a  39.97000000
_cell_length_b  40.00000000
_cell_length_c  33.16000000
_cell_angle_alpha  90.00000000
_cell_angle_beta   90.00000000
_cell_angle_gamma  120.00000000


_symmetry_space_group_name_Hall ' P 1'
_symmetry_space_group_name_H-M  'P 1'
_symmetry_Int_Tables_number     1

loop_
_atom_site_label
_atom_site_type_symbol
_atom_site_forcefield_label
_atom_site_Cartn_x
_atom_site_Cartn_y
_atom_site_Cartn_z
_atom_site_charge
P        P   P      12.02000000  22.93700000  1.38600000  0.00000000
O        O   O      11.38800000  23.61300000 -0.05300000  0.00000000
H        H   H      11.66400000  23.08200000 -0.80300000  0.00000000
O        O   O      11.53000000  23.88200000  2.72300000  0.00000000
H        H   H      11.88400000  23.50300000  3.53000000  0.00000000
O        O   O      11.43500000  21.34100000  1.57000000  0.00000000
C        C   C      13.83800000  22.91100000  1.29500000  0.00000000
H        H   H      14.20300000  23.90900000  1.18000000  0.00000000
H        H   H      14.23400000  22.48800000  2.19600000  0.00000000
N        N   N      14.26000000  22.09900000  0.14600000  0.00000000
H        H   H      13.91800000  21.16500000  0.25400000  0.00000000
C        C   C      15.72800000  22.07600000  0.07300000  0.00000000
H        H   H      16.12300000  21.65300000  0.97300000  0.00000000
H        H   H      16.09400000  23.07500000 -0.04300000  0.00000000
C        C   C      16.17000000  21.22600000 -1.13200000  0.00000000
O        O   O      15.43700000  21.15100000 -2.15300000  0.00000000
O        O   O      17.41300000  20.52000000 -1.09100000  0.00000000
H        H   H      17.34700000  19.72500000 -1.62600000  0.00000000
