data_Movie_nu1000_modified_1.1.2_100.000000_0.000000_allcomponents

_cell_length_a  39.97000000
_cell_length_b  40.00000000
_cell_length_c  33.16000000
_cell_angle_alpha  90.00000000
_cell_angle_beta   90.00000000
_cell_angle_gamma  120.00000000


_symmetry_space_group_name_Hall ' P 1'
_symmetry_space_group_name_H-M  'P 1'
_symmetry_Int_Tables_number     1

loop_
_atom_site_label
_atom_site_type_symbol
_atom_site_forcefield_label
_atom_site_Cartn_x
_atom_site_Cartn_y
_atom_site_Cartn_z
_atom_site_charge
P        P   P      10.99000000  23.11900000  1.63200000  0.00000000
O        O   O      10.89900000  21.41200000  1.64900000  0.00000000
O        O   O      11.37500000  23.68500000  3.19900000  0.00000000
O        O   O      9.48400000  23.76600000  1.14600000  0.00000000
C        C   C      11.45100000  25.11200000  3.18500000  0.00000000
H        H   H      10.50800000  25.51700000  2.88000000  0.00000000
H        H   H      11.69100000  25.46700000  4.16500000  0.00000000
H        H   H      12.21000000  25.42200000  2.49700000  0.00000000
C        C   C      9.16100000  23.29200000 -0.16500000  0.00000000
H        H   H      9.10500000  22.22400000 -0.15400000  0.00000000
H        H   H      8.22000000  23.69700000 -0.46900000  0.00000000
H        H   H      9.92200000  23.60200000 -0.85200000  0.00000000
O        O   O      12.20400000  23.61400000  0.53200000  0.00000000
C        C   C      13.46300000  23.07400000  0.93900000  0.00000000
C        C   C      13.87400000  21.82000000  0.46500000  0.00000000
C        C   C      14.28800000  23.79600000  1.81200000  0.00000000
C        C   C      15.10900000  21.29100000  0.86300000  0.00000000
H        H   H      13.24500000  21.26800000 -0.20200000  0.00000000
C        C   C      15.52300000  23.26700000  2.21000000  0.00000000
H        H   H      13.97400000  24.75300000  2.17500000  0.00000000
C        C   C      15.93300000  22.01400000  1.73600000  0.00000000
H        H   H      15.42300000  20.33400000  0.50100000  0.00000000
H        H   H      16.15200000  23.81900000  2.87700000  0.00000000
N        N   N      17.22800000  21.45800000  2.15300000  0.00000000
O        O   O      17.95600000  22.09600000  2.92400000  0.00000000
O        O   O      17.59100000  20.35200000  1.73400000  0.00000000
