data_Movie_nu1000_modified_1.1.2_100.000000_0.000000_allcomponents

_cell_length_a  39.97000000
_cell_length_b  40.00000000
_cell_length_c  33.16000000
_cell_angle_alpha  90.00000000
_cell_angle_beta   90.00000000
_cell_angle_gamma  120.00000000


_symmetry_space_group_name_Hall ' P 1'
_symmetry_space_group_name_H-M  'P 1'
_symmetry_Int_Tables_number     1

loop_
_atom_site_label
_atom_site_type_symbol
_atom_site_forcefield_label
_atom_site_Cartn_x
_atom_site_Cartn_y
_atom_site_Cartn_z
_atom_site_charge
P        P   P      10.99000000  23.11900000  1.63600000  0.00000000
O        O   O      10.89900000  21.41200000  1.65000000  0.00000000
O        O   O      11.33000000  23.68500000  3.21300000  0.00000000
O        O   O      9.49900000  23.76600000  1.10700000  0.00000000
C        C   C      11.40600000  25.11200000  3.20100000  0.00000000
H        H   H      10.47300000  25.51700000  2.87000000  0.00000000
H        H   H      11.61800000  25.46700000  4.18800000  0.00000000
H        H   H      12.18500000  25.42200000  2.53600000  0.00000000
C        C   C      9.21400000  23.29200000 -0.21300000  0.00000000
H        H   H      9.15700000  22.22400000 -0.20400000  0.00000000
H        H   H      8.28100000  23.69700000 -0.54300000  0.00000000
H        H   H      9.99300000  23.60200000 -0.87700000  0.00000000
O        O   O      12.23500000  23.61400000  0.57200000  0.00000000
C        C   C      13.48200000  23.07400000  1.01400000  0.00000000
C        C   C      13.90700000  21.82000000  0.55200000  0.00000000
C        C   C      14.28100000  23.79600000  1.91100000  0.00000000
C        C   C      15.13000000  21.29100000  0.98600000  0.00000000
H        H   H      13.29600000  21.26800000 -0.13200000  0.00000000
C        C   C      15.50400000  23.26700000  2.34300000  0.00000000
H        H   H      13.95800000  24.75300000  2.26400000  0.00000000
C        C   C      15.92800000  22.01400000  1.88100000  0.00000000
H        H   H      15.45300000  20.33400000  0.63200000  0.00000000
H        H   H      16.11400000  23.81900000  3.02800000  0.00000000
N        N   N      17.21100000  21.45800000  2.33600000  0.00000000
O        O   O      17.91700000  22.09600000  3.12700000  0.00000000
O        O   O      17.58500000  20.35200000  1.92700000  0.00000000
