data_Movie_nu1000_modified_1.1.2_100.000000_0.000000_allcomponents

_cell_length_a  39.97000000
_cell_length_b  40.00000000
_cell_length_c  33.16000000
_cell_angle_alpha  90.00000000
_cell_angle_beta   90.00000000
_cell_angle_gamma  120.00000000


_symmetry_space_group_name_Hall ' P 1'
_symmetry_space_group_name_H-M  'P 1'
_symmetry_Int_Tables_number     1

loop_
_atom_site_label
_atom_site_type_symbol
_atom_site_forcefield_label
_atom_site_Cartn_x
_atom_site_Cartn_y
_atom_site_Cartn_z
_atom_site_charge
P        P   P      11.16200000  23.11900000  1.58800000  0.00000000
O        O   O      10.99300000  21.41800000  1.63600000  0.00000000
O        O   O      11.48100000  23.70400000  3.16300000  0.00000000
O        O   O      9.71700000  23.82000000  1.00200000  0.00000000
C        C   C      11.62300000  25.12600000  3.12300000  0.00000000
H        H   H      10.71900000  25.56500000  2.75600000  0.00000000
H        H   H      11.82300000  25.49400000  4.10800000  0.00000000
H        H   H      12.43400000  25.38600000  2.47500000  0.00000000
C        C   C      9.44900000  23.33000000 -0.31500000  0.00000000
H        H   H      9.34400000  22.26600000 -0.28600000  0.00000000
H        H   H      8.54600000  23.76800000 -0.68200000  0.00000000
H        H   H      10.26100000  23.59000000 -0.96300000  0.00000000
O        O   O      12.45800000  23.53400000  0.55200000  0.00000000
C        C   C      13.66600000  22.94800000  1.04300000  0.00000000
C        C   C      14.04700000  21.66700000  0.61900000  0.00000000
C        C   C      14.47100000  23.65400000  1.94700000  0.00000000
C        C   C      15.23100000  21.09300000  1.10100000  0.00000000
H        H   H      13.43200000  21.12700000 -0.07100000  0.00000000
C        C   C      15.65600000  23.08100000  2.42700000  0.00000000
H        H   H      14.18100000  24.63200000  2.27000000  0.00000000
C        C   C      16.03600000  21.80000000  2.00400000  0.00000000
H        H   H      15.52100000  20.11500000  0.77700000  0.00000000
H        H   H      16.27000000  23.62000000  3.11800000  0.00000000
N        N   N      17.27800000  21.19800000  2.50800000  0.00000000
O        O   O      17.98900000  21.82100000  3.30700000  0.00000000
O        O   O      17.61400000  20.06700000  2.13500000  0.00000000
