data_Movie_nu1000_modified_1.1.2_100.000000_0.000000_allcomponents

_cell_length_a  39.97000000
_cell_length_b  40.00000000
_cell_length_c  33.16000000
_cell_angle_alpha  90.00000000
_cell_angle_beta   90.00000000
_cell_angle_gamma  120.00000000


_symmetry_space_group_name_Hall ' P 1'
_symmetry_space_group_name_H-M  'P 1'
_symmetry_Int_Tables_number     1

loop_
_atom_site_label
_atom_site_type_symbol
_atom_site_forcefield_label
_atom_site_Cartn_x
_atom_site_Cartn_y
_atom_site_Cartn_z
_atom_site_charge
P        P   P      11.23300000  23.10800000  1.65900000  0.00000000
O        O   O      11.02800000  21.41100000  1.66400000  0.00000000
O        O   O      11.67400000  23.63300000  3.22600000  0.00000000
O        O   O      9.76800000  23.85900000  1.19900000  0.00000000
C        C   C      11.84600000  25.05200000  3.22200000  0.00000000
H        H   H      10.92900000  25.52100000  2.93400000  0.00000000
H        H   H      12.12200000  25.38100000  4.20300000  0.00000000
H        H   H      12.61600000  25.31600000  2.52800000  0.00000000
C        C   C      9.39700000  23.42000000 -0.11100000  0.00000000
H        H   H      9.26900000  22.35800000 -0.10900000  0.00000000
H        H   H      8.48100000  23.89000000 -0.39900000  0.00000000
H        H   H      10.16800000  23.68400000 -0.80600000  0.00000000
O        O   O      12.46300000  23.53100000  0.54800000  0.00000000
C        C   C      13.68800000  22.90300000  0.93400000  0.00000000
C        C   C      14.00800000  21.62900000  0.44300000  0.00000000
C        C   C      14.57100000  23.56100000  1.80200000  0.00000000
C        C   C      15.21000000  21.01500000  0.82100000  0.00000000
H        H   H      13.33400000  21.12600000 -0.21900000  0.00000000
C        C   C      15.77200000  22.94600000  2.17800000  0.00000000
H        H   H      14.32700000  24.53300000  2.17600000  0.00000000
C        C   C      16.09100000  21.67300000  1.68900000  0.00000000
H        H   H      15.45400000  20.04200000  0.44700000  0.00000000
H        H   H      16.44500000  23.44900000  2.84100000  0.00000000
N        N   N      17.35100000  21.02800000  2.08400000  0.00000000
O        O   O      18.13100000  21.60900000  2.85100000  0.00000000
O        O   O      17.63400000  19.90300000  1.65200000  0.00000000
