data_Movie_nu1000_modified_1.1.2_100.000000_0.000000_allcomponents

_cell_length_a  39.97000000
_cell_length_b  40.00000000
_cell_length_c  33.16000000
_cell_angle_alpha  90.00000000
_cell_angle_beta   90.00000000
_cell_angle_gamma  120.00000000


_symmetry_space_group_name_Hall ' P 1'
_symmetry_space_group_name_H-M  'P 1'
_symmetry_Int_Tables_number     1

loop_
_atom_site_label
_atom_site_type_symbol
_atom_site_forcefield_label
_atom_site_Cartn_x
_atom_site_Cartn_y
_atom_site_Cartn_z
_atom_site_charge
P        P   P      10.32400000  23.25100000  1.38100000  0.00000000
O        O   O      10.68700000  21.58700000  1.52600000  0.00000000
O        O   O      10.26000000  23.95800000  2.93700000  0.00000000
O        O   O      8.81200000  23.44000000  0.60600000  0.00000000
C        C   C      9.95700000  25.35000000  2.81600000  0.00000000
H        H   H      9.01000000  25.46800000  2.33100000  0.00000000
H        H   H      9.91600000  25.79300000  3.78900000  0.00000000
H        H   H      10.71700000  25.83100000  2.23600000  0.00000000
C        C   C      8.86500000  22.84900000 -0.69500000  0.00000000
H        H   H      9.09200000  21.80700000 -0.60500000  0.00000000
H        H   H      7.91900000  22.96700000 -1.18000000  0.00000000
H        H   H      9.62500000  23.33100000 -1.27400000  0.00000000
O        O   O      11.53900000  24.02100000  0.45400000  0.00000000
C        C   C      12.80300000  23.86300000  1.10300000  0.00000000
C        C   C      13.60900000  22.75400000  0.80700000  0.00000000
C        C   C      13.23800000  24.81600000  2.03300000  0.00000000
C        C   C      14.84900000  22.60000000  1.44200000  0.00000000
H        H   H      13.27700000  22.02600000  0.09600000  0.00000000
C        C   C      14.47800000  24.66200000  2.66800000  0.00000000
H        H   H      12.62300000  25.66200000  2.25900000  0.00000000
C        C   C      15.28300000  23.55400000  2.37200000  0.00000000
H        H   H      15.46400000  21.75400000  1.21600000  0.00000000
H        H   H      14.80900000  25.39000000  3.37900000  0.00000000
N        N   N      16.58300000  23.39100000  3.03800000  0.00000000
O        O   O      16.96700000  24.23300000  3.86100000  0.00000000
O        O   O      17.29500000  22.41300000  2.77700000  0.00000000
