data_Movie_nu1000_modified_1.1.2_100.000000_0.000000_allcomponents

_cell_length_a  39.97000000
_cell_length_b  40.00000000
_cell_length_c  33.16000000
_cell_angle_alpha  90.00000000
_cell_angle_beta   90.00000000
_cell_angle_gamma  120.00000000


_symmetry_space_group_name_Hall ' P 1'
_symmetry_space_group_name_H-M  'P 1'
_symmetry_Int_Tables_number     1

loop_
_atom_site_label
_atom_site_type_symbol
_atom_site_forcefield_label
_atom_site_Cartn_x
_atom_site_Cartn_y
_atom_site_Cartn_z
_atom_site_charge
P        P   P      11.23300000  23.10800000  1.62500000  0.00000000
O        O   O      11.10800000  21.40300000  1.63000000  0.00000000
O        O   O      11.64900000  23.65300000  3.19200000  0.00000000
O        O   O      9.73400000  23.78900000  1.16500000  0.00000000
C        C   C      11.75400000  25.07800000  3.18800000  0.00000000
H        H   H      10.81600000  25.50500000  2.90000000  0.00000000
H        H   H      12.01500000  25.42000000  4.16900000  0.00000000
H        H   H      12.51100000  25.37900000  2.49300000  0.00000000
C        C   C      9.38500000  23.33400000 -0.14500000  0.00000000
H        H   H      9.30700000  22.26600000 -0.14300000  0.00000000
H        H   H      8.44700000  23.76000000 -0.43300000  0.00000000
H        H   H      10.14200000  23.63400000 -0.84000000  0.00000000
O        O   O      12.44200000  23.58800000  0.51400000  0.00000000
C        C   C      13.69500000  23.01900000  0.90000000  0.00000000
C        C   C      14.07400000  21.76100000  0.40900000  0.00000000
C        C   C      14.54600000  23.71700000  1.76700000  0.00000000
C        C   C      15.30400000  21.20300000  0.78700000  0.00000000
H        H   H      13.42500000  21.22700000 -0.25300000  0.00000000
C        C   C      15.77500000  23.15900000  2.14400000  0.00000000
H        H   H      14.25700000  24.67700000  2.14200000  0.00000000
C        C   C      16.15300000  21.90300000  1.65400000  0.00000000
H        H   H      15.59300000  20.24300000  0.41300000  0.00000000
H        H   H      16.42400000  23.69300000  2.80700000  0.00000000
N        N   N      17.44200000  21.31700000  2.05000000  0.00000000
O        O   O      18.19300000  21.93400000  2.81700000  0.00000000
O        O   O      17.77700000  20.20700000  1.61800000  0.00000000
