data_Movie_nu1000_modified_1.1.2_100.000000_0.000000_allcomponents

_cell_length_a  39.97000000
_cell_length_b  40.00000000
_cell_length_c  33.16000000
_cell_angle_alpha  90.00000000
_cell_angle_beta   90.00000000
_cell_angle_gamma  120.00000000


_symmetry_space_group_name_Hall ' P 1'
_symmetry_space_group_name_H-M  'P 1'
_symmetry_Int_Tables_number     1

loop_
_atom_site_label
_atom_site_type_symbol
_atom_site_forcefield_label
_atom_site_Cartn_x
_atom_site_Cartn_y
_atom_site_Cartn_z
_atom_site_charge
P        P   P      10.74200000  23.11900000  1.55600000  0.00000000
O        O   O      10.73900000  21.40900000  1.53400000  0.00000000
O        O   O      11.19100000  23.66700000  3.11300000  0.00000000
O        O   O      9.17900000  23.69800000  1.17700000  0.00000000
C        C   C      11.19400000  25.09600000  3.13200000  0.00000000
H        H   H      10.21600000  25.45900000  2.89400000  0.00000000
H        H   H      11.47500000  25.44000000  4.10600000  0.00000000
H        H   H      11.89400000  25.46100000  2.41000000  0.00000000
C        C   C      8.80300000  23.23900000 -0.12500000  0.00000000
H        H   H      8.80100000  22.17000000 -0.13900000  0.00000000
H        H   H      7.82500000  23.60200000 -0.36200000  0.00000000
H        H   H      9.50400000  23.60400000 -0.84600000  0.00000000
O        O   O      11.86100000  23.70200000  0.40100000  0.00000000
C        C   C      13.16900000  23.21900000  0.71900000  0.00000000
C        C   C      13.61300000  21.99900000  0.18800000  0.00000000
C        C   C      14.00700000  23.96200000  1.56100000  0.00000000
C        C   C      14.89500000  21.52500000  0.50000000  0.00000000
H        H   H      12.97400000  21.43100000 -0.45500000  0.00000000
C        C   C      15.28800000  23.48800000  1.87100000  0.00000000
H        H   H      13.66800000  24.89300000  1.96700000  0.00000000
C        C   C      15.73200000  22.27000000  1.34100000  0.00000000
H        H   H      15.23400000  20.59500000  0.09400000  0.00000000
H        H   H      15.92700000  24.05700000  2.51500000  0.00000000
N        N   N      17.07600000  21.77200000  1.66700000  0.00000000
O        O   O      17.81600000  22.42900000  2.41100000  0.00000000
O        O   O      17.46900000  20.69600000  1.19800000  0.00000000
