data_Movie_nu1000_modified_1.1.2_100.000000_0.000000_allcomponents

_cell_length_a  39.97000000
_cell_length_b  40.00000000
_cell_length_c  33.16000000
_cell_angle_alpha  90.00000000
_cell_angle_beta   90.00000000
_cell_angle_gamma  120.00000000


_symmetry_space_group_name_Hall ' P 1'
_symmetry_space_group_name_H-M  'P 1'
_symmetry_Int_Tables_number     1

loop_
_atom_site_label
_atom_site_type_symbol
_atom_site_forcefield_label
_atom_site_Cartn_x
_atom_site_Cartn_y
_atom_site_Cartn_z
_atom_site_charge
P        P   P      11.03500000  23.11900000  1.70800000  0.00000000
O        O   O      10.86600000  21.41800000  1.70800000  0.00000000
O        O   O      11.36500000  23.65900000  3.29600000  0.00000000
O        O   O      9.58700000  23.83700000  1.15100000  0.00000000
C        C   C      11.50600000  25.08100000  3.29700000  0.00000000
H        H   H      10.60000000  25.53000000  2.94800000  0.00000000
H        H   H      11.71300000  25.42000000  4.29100000  0.00000000
H        H   H      12.31300000  25.35900000  2.65100000  0.00000000
C        C   C      9.31000000  23.38500000 -0.17800000  0.00000000
H        H   H      9.20500000  22.32000000 -0.17800000  0.00000000
H        H   H      8.40400000  23.83400000 -0.52600000  0.00000000
H        H   H      10.11800000  23.66300000 -0.82300000  0.00000000
O        O   O      12.32400000  23.56400000  0.67500000  0.00000000
C        C   C      13.53600000  22.96400000  1.14100000  0.00000000
C        C   C      13.91300000  21.69500000  0.67800000  0.00000000
C        C   C      14.34700000  23.64400000  2.06000000  0.00000000
C        C   C      15.10100000  21.10800000  1.13500000  0.00000000
H        H   H      13.29400000  21.17600000 -0.02300000  0.00000000
C        C   C      15.53500000  23.05600000  2.51500000  0.00000000
H        H   H      14.05900000  24.61200000  2.41300000  0.00000000
C        C   C      15.91100000  21.78900000  2.05300000  0.00000000
H        H   H      15.38900000  20.14000000  0.78200000  0.00000000
H        H   H      16.15300000  23.57600000  3.21700000  0.00000000
N        N   N      17.15700000  21.17200000  2.53200000  0.00000000
O        O   O      17.87300000  21.77200000  3.34400000  0.00000000
O        O   O      17.49000000  20.05200000  2.12400000  0.00000000
