data_Movie_nu1000_modified_1.1.2_100.000000_0.000000_allcomponents

_cell_length_a  39.97000000
_cell_length_b  40.00000000
_cell_length_c  33.16000000
_cell_angle_alpha  90.00000000
_cell_angle_beta   90.00000000
_cell_angle_gamma  120.00000000


_symmetry_space_group_name_Hall ' P 1'
_symmetry_space_group_name_H-M  'P 1'
_symmetry_Int_Tables_number     1

loop_
_atom_site_label
_atom_site_type_symbol
_atom_site_forcefield_label
_atom_site_Cartn_x
_atom_site_Cartn_y
_atom_site_Cartn_z
_atom_site_charge
P        P   P      10.39900000  23.25100000  1.55600000  0.00000000
O        O   O      10.78200000  21.58700000  1.63600000  0.00000000
O        O   O      10.60700000  23.95800000  3.09900000  0.00000000
O        O   O      8.77500000  23.44000000  1.05700000  0.00000000
C        C   C      10.28700000  25.35000000  3.03300000  0.00000000
H        H   H      9.27100000  25.46800000  2.72000000  0.00000000
H        H   H      10.41700000  25.79300000  3.99900000  0.00000000
H        H   H      10.93500000  25.83100000  2.33000000  0.00000000
C        C   C      8.60100000  22.84900000 -0.23400000  0.00000000
H        H   H      8.84000000  21.80700000 -0.18400000  0.00000000
H        H   H      7.58500000  22.96700000 -0.54600000  0.00000000
H        H   H      9.24900000  23.33100000 -0.93600000  0.00000000
O        O   O      11.43400000  24.02100000  0.43200000  0.00000000
C        C   C      12.79200000  23.86300000  0.85100000  0.00000000
C        C   C      13.53400000  22.75400000  0.41900000  0.00000000
C        C   C      13.38300000  24.81600000  1.69200000  0.00000000
C        C   C      14.86600000  22.60000000  0.82900000  0.00000000
H        H   H      13.08400000  22.02600000 -0.22300000  0.00000000
C        C   C      14.71400000  24.66200000  2.10100000  0.00000000
H        H   H      12.81600000  25.66200000  2.02100000  0.00000000
C        C   C      15.45500000  23.55400000  1.67000000  0.00000000
H        H   H      15.43200000  21.75400000  0.50000000  0.00000000
H        H   H      15.16400000  25.39000000  2.74300000  0.00000000
N        N   N      16.85100000  23.39100000  2.09900000  0.00000000
O        O   O      17.37300000  24.23300000  2.84200000  0.00000000
O        O   O      17.50700000  22.41300000  1.71800000  0.00000000
