data_Movie_nu1000_modified_1.1.2_100.000000_0.000000_allcomponents

_cell_length_a  39.97000000
_cell_length_b  40.00000000
_cell_length_c  33.16000000
_cell_angle_alpha  90.00000000
_cell_angle_beta   90.00000000
_cell_angle_gamma  120.00000000


_symmetry_space_group_name_Hall ' P 1'
_symmetry_space_group_name_H-M  'P 1'
_symmetry_Int_Tables_number     1

loop_
_atom_site_label
_atom_site_type_symbol
_atom_site_forcefield_label
_atom_site_Cartn_x
_atom_site_Cartn_y
_atom_site_Cartn_z
_atom_site_charge
P        P   P      11.03500000  23.11900000  1.70600000  0.00000000
O        O   O      10.86600000  21.41800000  1.70500000  0.00000000
O        O   O      11.35400000  23.65900000  3.29700000  0.00000000
O        O   O      9.59000000  23.83700000  1.14000000  0.00000000
C        C   C      11.49600000  25.08100000  3.29800000  0.00000000
H        H   H      10.59200000  25.53000000  2.94400000  0.00000000
H        H   H      11.69600000  25.42000000  4.29400000  0.00000000
H        H   H      12.30700000  25.35900000  2.65800000  0.00000000
C        C   C      9.32200000  23.38500000 -0.19100000  0.00000000
H        H   H      9.21700000  22.32000000 -0.19200000  0.00000000
H        H   H      8.41900000  23.83400000 -0.54500000  0.00000000
H        H   H      10.13400000  23.66300000 -0.83000000  0.00000000
O        O   O      12.33100000  23.56400000  0.68200000  0.00000000
C        C   C      13.53900000  22.96400000  1.15600000  0.00000000
C        C   C      13.92000000  21.69500000  0.69600000  0.00000000
C        C   C      14.34500000  23.64400000  2.08000000  0.00000000
C        C   C      15.10400000  21.10800000  1.16000000  0.00000000
H        H   H      13.30500000  21.17600000 -0.01000000  0.00000000
C        C   C      15.52900000  23.05600000  2.54300000  0.00000000
H        H   H      14.05400000  24.61200000  2.43100000  0.00000000
C        C   C      15.90900000  21.78900000  2.08400000  0.00000000
H        H   H      15.39500000  20.14000000  0.80900000  0.00000000
H        H   H      16.14300000  23.57600000  3.24900000  0.00000000
N        N   N      17.15100000  21.17200000  2.57000000  0.00000000
O        O   O      17.86200000  21.77200000  3.38700000  0.00000000
O        O   O      17.48700000  20.05200000  2.16400000  0.00000000
