data_Movie_nu1000_modified_1.1.2_100.000000_0.000000_allcomponents

_cell_length_a  39.97000000
_cell_length_b  40.00000000
_cell_length_c  33.16000000
_cell_angle_alpha  90.00000000
_cell_angle_beta   90.00000000
_cell_angle_gamma  120.00000000


_symmetry_space_group_name_Hall ' P 1'
_symmetry_space_group_name_H-M  'P 1'
_symmetry_Int_Tables_number     1

loop_
_atom_site_label
_atom_site_type_symbol
_atom_site_forcefield_label
_atom_site_Cartn_x
_atom_site_Cartn_y
_atom_site_Cartn_z
_atom_site_charge
P        P   P      11.23300000  23.10800000  1.62500000  0.00000000
O        O   O      11.11300000  21.40200000  1.61600000  0.00000000
O        O   O      11.54900000  23.64900000  3.21600000  0.00000000
O        O   O      9.76300000  23.78600000  1.07400000  0.00000000
C        C   C      11.64900000  25.07500000  3.22400000  0.00000000
H        H   H      10.73000000  25.49900000  2.87900000  0.00000000
H        H   H      11.84700000  25.41400000  4.22000000  0.00000000
H        H   H      12.44600000  25.38000000  2.57900000  0.00000000
C        C   C      9.49800000  23.33400000 -0.25600000  0.00000000
H        H   H      9.42300000  22.26600000 -0.26200000  0.00000000
H        H   H      8.57900000  23.75800000 -0.60100000  0.00000000
H        H   H      10.29600000  23.63900000 -0.90100000  0.00000000
O        O   O      12.50700000  23.59600000  0.59300000  0.00000000
C        C   C      13.73600000  23.02900000  1.05400000  0.00000000
C        C   C      14.14900000  21.77400000  0.58400000  0.00000000
C        C   C      14.52900000  23.72700000  1.97600000  0.00000000
C        C   C      15.35400000  21.21900000  1.03700000  0.00000000
H        H   H      13.54400000  21.24000000 -0.11900000  0.00000000
C        C   C      15.73300000  23.17200000  2.42700000  0.00000000
H        H   H      14.21300000  24.68500000  2.33500000  0.00000000
C        C   C      16.14600000  21.91800000  1.95700000  0.00000000
H        H   H      15.67000000  20.26100000  0.67800000  0.00000000
H        H   H      16.33800000  23.70500000  3.13000000  0.00000000
N        N   N      17.40900000  21.33500000  2.43100000  0.00000000
O        O   O      18.10900000  21.95200000  3.24500000  0.00000000
O        O   O      17.77400000  20.22800000  2.01600000  0.00000000
