data_Movie_nu1000_modified_1.1.2_100.000000_0.000000_allcomponents

_cell_length_a  39.97000000
_cell_length_b  40.00000000
_cell_length_c  33.16000000
_cell_angle_alpha  90.00000000
_cell_angle_beta   90.00000000
_cell_angle_gamma  120.00000000


_symmetry_space_group_name_Hall ' P 1'
_symmetry_space_group_name_H-M  'P 1'
_symmetry_Int_Tables_number     1

loop_
_atom_site_label
_atom_site_type_symbol
_atom_site_forcefield_label
_atom_site_Cartn_x
_atom_site_Cartn_y
_atom_site_Cartn_z
_atom_site_charge
P        P   P      11.23300000  23.10800000  1.62500000  0.00000000
O        O   O      11.11300000  21.40200000  1.61400000  0.00000000
O        O   O      11.51800000  23.64900000  3.22200000  0.00000000
O        O   O      9.77500000  23.78600000  1.04500000  0.00000000
C        C   C      11.61800000  25.07500000  3.23200000  0.00000000
H        H   H      10.70500000  25.49900000  2.86900000  0.00000000
H        H   H      11.79600000  25.41400000  4.23100000  0.00000000
H        H   H      12.42700000  25.38000000  2.60200000  0.00000000
C        C   C      9.53500000  23.33400000 -0.29000000  0.00000000
H        H   H      9.46100000  22.26600000 -0.29800000  0.00000000
H        H   H      8.62300000  23.75800000 -0.65300000  0.00000000
H        H   H      10.34600000  23.63900000 -0.91900000  0.00000000
O        O   O      12.52700000  23.59600000  0.61800000  0.00000000
C        C   C      13.74700000  23.02900000  1.10400000  0.00000000
C        C   C      14.16900000  21.77400000  0.64200000  0.00000000
C        C   C      14.52100000  23.72700000  2.04100000  0.00000000
C        C   C      15.36500000  21.21900000  1.11800000  0.00000000
H        H   H      13.57800000  21.24000000 -0.07300000  0.00000000
C        C   C      15.71700000  23.17200000  2.51500000  0.00000000
H        H   H      14.19900000  24.68500000  2.39300000  0.00000000
C        C   C      16.13800000  21.91800000  2.05400000  0.00000000
H        H   H      15.68700000  20.26100000  0.76500000  0.00000000
H        H   H      16.30700000  23.70500000  3.23100000  0.00000000
N        N   N      17.39200000  21.33500000  2.55200000  0.00000000
O        O   O      18.07600000  21.95200000  3.38000000  0.00000000
O        O   O      17.76500000  20.22800000  2.14500000  0.00000000
