data_Movie_nu1000_modified_1.1.2_100.000000_0.000000_allcomponents

_cell_length_a  39.97000000
_cell_length_b  40.00000000
_cell_length_c  33.16000000
_cell_angle_alpha  90.00000000
_cell_angle_beta   90.00000000
_cell_angle_gamma  120.00000000


_symmetry_space_group_name_Hall ' P 1'
_symmetry_space_group_name_H-M  'P 1'
_symmetry_Int_Tables_number     1

loop_
_atom_site_label
_atom_site_type_symbol
_atom_site_forcefield_label
_atom_site_Cartn_x
_atom_site_Cartn_y
_atom_site_Cartn_z
_atom_site_charge
P        P   P      10.32400000  24.22600000  1.38100000  0.00000000
O        O   O      10.65800000  22.56100000  1.58400000  0.00000000
O        O   O      10.00100000  24.93200000  2.90400000  0.00000000
O        O   O      8.96200000  24.41500000  0.36500000  0.00000000
C        C   C      9.72300000  26.32400000  2.73400000  0.00000000
H        H   H      8.87000000  26.44200000  2.09800000  0.00000000
H        H   H      9.52000000  26.76700000  3.68700000  0.00000000
H        H   H      10.56800000  26.80500000  2.29000000  0.00000000
C        C   C      9.23100000  23.82300000 -0.90900000  0.00000000
H        H   H      9.44000000  22.78200000 -0.78200000  0.00000000
H        H   H      8.37900000  23.94200000 -1.54500000  0.00000000
H        H   H      10.07800000  24.30500000 -1.35300000  0.00000000
O        O   O      11.67600000  24.99500000  0.67000000  0.00000000
C        C   C      12.81500000  24.83700000  1.52000000  0.00000000
C        C   C      13.65900000  23.72900000  1.36300000  0.00000000
C        C   C      13.08900000  25.79000000  2.51000000  0.00000000
C        C   C      14.77500000  23.57500000  2.19600000  0.00000000
H        H   H      13.45000000  23.00000000  0.60700000  0.00000000
C        C   C      14.20500000  25.63600000  3.34200000  0.00000000
H        H   H      12.44400000  26.63700000  2.63100000  0.00000000
C        C   C      15.04800000  24.52800000  3.18500000  0.00000000
H        H   H      15.41900000  22.72800000  2.07600000  0.00000000
H        H   H      14.41300000  26.36400000  4.09900000  0.00000000
N        N   N      16.21900000  24.36600000  4.05900000  0.00000000
O        O   O      16.46100000  25.20800000  4.93400000  0.00000000
O        O   O      16.96400000  23.38800000  3.92000000  0.00000000
