data_Movie_nu1000_modified_1.1.2_100.000000_0.000000_allcomponents

_cell_length_a  39.97000000
_cell_length_b  40.00000000
_cell_length_c  33.16000000
_cell_angle_alpha  90.00000000
_cell_angle_beta   90.00000000
_cell_angle_gamma  120.00000000


_symmetry_space_group_name_Hall ' P 1'
_symmetry_space_group_name_H-M  'P 1'
_symmetry_Int_Tables_number     1

loop_
_atom_site_label
_atom_site_type_symbol
_atom_site_forcefield_label
_atom_site_Cartn_x
_atom_site_Cartn_y
_atom_site_Cartn_z
_atom_site_charge
P        P   P      11.16100000  23.11100000  1.58800000  0.00000000
O        O   O      11.06200000  21.40400000  1.61500000  0.00000000
O        O   O      11.53200000  23.68500000  3.15500000  0.00000000
O        O   O      9.66200000  23.76100000  1.08400000  0.00000000
C        C   C      11.61400000  25.11200000  3.13300000  0.00000000
H        H   H      10.67600000  25.51800000  2.81700000  0.00000000
H        H   H      11.84700000  25.47200000  4.11400000  0.00000000
H        H   H      12.38200000  25.41400000  2.45100000  0.00000000
C        C   C      9.35000000  23.28000000 -0.22700000  0.00000000
H        H   H      9.28900000  22.21200000 -0.21000000  0.00000000
H        H   H      8.41300000  23.68700000 -0.54300000  0.00000000
H        H   H      10.11800000  23.58200000 -0.90800000  0.00000000
O        O   O      12.38700000  23.59400000  0.49800000  0.00000000
C        C   C      13.64000000  23.05100000  0.92000000  0.00000000
C        C   C      14.05000000  21.79300000  0.45700000  0.00000000
C        C   C      14.45900000  23.77600000  1.79700000  0.00000000
C        C   C      15.27900000  21.26100000  0.87200000  0.00000000
H        H   H      13.42500000  21.23900000 -0.21100000  0.00000000
C        C   C      15.68800000  23.24400000  2.20900000  0.00000000
H        H   H      14.14600000  24.73600000  2.15000000  0.00000000
C        C   C      16.09800000  21.98600000  1.74700000  0.00000000
H        H   H      15.59300000  20.30000000  0.51800000  0.00000000
H        H   H      16.31300000  23.79800000  2.87900000  0.00000000
N        N   N      17.38600000  21.42800000  2.18100000  0.00000000
O        O   O      18.11000000  22.06800000  2.95500000  0.00000000
O        O   O      17.74900000  20.31700000  1.77300000  0.00000000
