data_Movie_nu1000_modified_1.1.2_100.000000_0.000000_allcomponents

_cell_length_a  39.97000000
_cell_length_b  40.00000000
_cell_length_c  33.16000000
_cell_angle_alpha  90.00000000
_cell_angle_beta   90.00000000
_cell_angle_gamma  120.00000000


_symmetry_space_group_name_Hall ' P 1'
_symmetry_space_group_name_H-M  'P 1'
_symmetry_Int_Tables_number     1

loop_
_atom_site_label
_atom_site_type_symbol
_atom_site_forcefield_label
_atom_site_Cartn_x
_atom_site_Cartn_y
_atom_site_Cartn_z
_atom_site_charge
P        P   P      10.99000000  23.11900000  1.63200000  0.00000000
O        O   O      10.90000000  21.41200000  1.65100000  0.00000000
O        O   O      11.40000000  23.68500000  3.19200000  0.00000000
O        O   O      9.47600000  23.76600000  1.17100000  0.00000000
C        C   C      11.47600000  25.11200000  3.17700000  0.00000000
H        H   H      10.52900000  25.51700000  2.88800000  0.00000000
H        H   H      11.73300000  25.46700000  4.15400000  0.00000000
H        H   H      12.22400000  25.42200000  2.47700000  0.00000000
C        C   C      9.13200000  23.29200000 -0.13500000  0.00000000
H        H   H      9.07600000  22.22400000 -0.12300000  0.00000000
H        H   H      8.18600000  23.69700000 -0.42300000  0.00000000
H        H   H      9.88100000  23.60200000 -0.83400000  0.00000000
O        O   O      12.18600000  23.61400000  0.51300000  0.00000000
C        C   C      13.45200000  23.07400000  0.89900000  0.00000000
C        C   C      13.85500000  21.82000000  0.41700000  0.00000000
C        C   C      14.29100000  23.79600000  1.75800000  0.00000000
C        C   C      15.09600000  21.29100000  0.79600000  0.00000000
H        H   H      13.21400000  21.26800000 -0.23800000  0.00000000
C        C   C      15.53200000  23.26700000  2.13500000  0.00000000
H        H   H      13.98300000  24.75300000  2.12600000  0.00000000
C        C   C      15.93400000  22.01400000  1.65500000  0.00000000
H        H   H      15.40400000  20.33400000  0.42800000  0.00000000
H        H   H      16.17200000  23.81900000  2.79200000  0.00000000
N        N   N      17.23600000  21.45800000  2.05100000  0.00000000
O        O   O      17.97700000  22.09600000  2.81000000  0.00000000
O        O   O      17.59200000  20.35200000  1.62600000  0.00000000
