data_Movie_nu1000_modified_1.1.2_100.000000_0.000000_allcomponents

_cell_length_a  39.97000000
_cell_length_b  40.00000000
_cell_length_c  33.16000000
_cell_angle_alpha  90.00000000
_cell_angle_beta   90.00000000
_cell_angle_gamma  120.00000000


_symmetry_space_group_name_Hall ' P 1'
_symmetry_space_group_name_H-M  'P 1'
_symmetry_Int_Tables_number     1

loop_
_atom_site_label
_atom_site_type_symbol
_atom_site_forcefield_label
_atom_site_Cartn_x
_atom_site_Cartn_y
_atom_site_Cartn_z
_atom_site_charge
P        P   P      9.06900000  26.58200000  1.10300000  0.00000000
O        O   O      9.62200000  25.03700000  0.62100000  0.00000000
O        O   O      9.08000000  26.68300000  2.81000000  0.00000000
O        O   O      7.47700000  26.82300000  0.52800000  0.00000000
C        C   C      8.61800000  27.97400000  3.21400000  0.00000000
H        H   H      7.62200000  28.12500000  2.85400000  0.00000000
H        H   H      8.62500000  28.03800000  4.28200000  0.00000000
H        H   H      9.26200000  28.72600000  2.80800000  0.00000000
C        C   C      7.46700000  26.73800000 -0.90000000  0.00000000
H        H   H      7.81300000  25.77200000 -1.20200000  0.00000000
H        H   H      6.47100000  26.88900000 -1.25900000  0.00000000
H        H   H      8.11100000  27.49000000 -1.30500000  0.00000000
O        O   O      10.09800000  27.78400000  0.45300000  0.00000000
C        C   C      11.42900000  27.58200000  0.93500000  0.00000000
C        C   C      12.31700000  26.76700000  0.21800000  0.00000000
C        C   C      11.84700000  28.19800000  2.12200000  0.00000000
C        C   C      13.62200000  26.56900000  0.69000000  0.00000000
H        H   H      11.99800000  26.29600000 -0.68800000  0.00000000
C        C   C      13.15100000  28.00100000  2.59300000  0.00000000
H        H   H      11.16900000  28.82000000  2.66900000  0.00000000
C        C   C      14.03900000  27.18600000  1.87700000  0.00000000
H        H   H      14.30000000  25.94800000  0.14400000  0.00000000
H        H   H      13.47000000  28.47100000  3.50000000  0.00000000
N        N   N      15.40700000  26.97800000  2.37200000  0.00000000
O        O   O      15.77600000  27.52300000  3.42100000  0.00000000
O        O   O      16.19200000  26.26000000  1.74000000  0.00000000
