data_Movie_nu1000_modified_1.1.2_100.000000_0.000000_allcomponents

_cell_length_a  39.97000000
_cell_length_b  40.00000000
_cell_length_c  33.16000000
_cell_angle_alpha  90.00000000
_cell_angle_beta   90.00000000
_cell_angle_gamma  120.00000000


_symmetry_space_group_name_Hall ' P 1'
_symmetry_space_group_name_H-M  'P 1'
_symmetry_Int_Tables_number     1

loop_
_atom_site_label
_atom_site_type_symbol
_atom_site_forcefield_label
_atom_site_Cartn_x
_atom_site_Cartn_y
_atom_site_Cartn_z
_atom_site_charge
P        P   P      10.99000000  23.11900000  1.63600000  0.00000000
O        O   O      10.89900000  21.41200000  1.65200000  0.00000000
O        O   O      11.36100000  23.68500000  3.20600000  0.00000000
O        O   O      9.48800000  23.76600000  1.13700000  0.00000000
C        C   C      11.43700000  25.11200000  3.19200000  0.00000000
H        H   H      10.49700000  25.51700000  2.88000000  0.00000000
H        H   H      11.66900000  25.46700000  4.17500000  0.00000000
H        H   H      12.20300000  25.42200000  2.51200000  0.00000000
C        C   C      9.17700000  23.29200000 -0.17700000  0.00000000
H        H   H      9.12000000  22.22400000 -0.16700000  0.00000000
H        H   H      8.23800000  23.69700000 -0.48900000  0.00000000
H        H   H      9.94300000  23.60200000 -0.85700000  0.00000000
O        O   O      12.21300000  23.61400000  0.54700000  0.00000000
C        C   C      13.46900000  23.07400000  0.96500000  0.00000000
C        C   C      13.88400000  21.82000000  0.49300000  0.00000000
C        C   C      14.28600000  23.79600000  1.84500000  0.00000000
C        C   C      15.11600000  21.29100000  0.90300000  0.00000000
H        H   H      13.26000000  21.26800000 -0.17800000  0.00000000
C        C   C      15.51800000  23.26700000  2.25300000  0.00000000
H        H   H      13.97000000  24.75300000  2.20500000  0.00000000
C        C   C      15.93200000  22.01400000  1.78200000  0.00000000
H        H   H      15.43300000  20.33400000  0.54300000  0.00000000
H        H   H      16.14100000  23.81900000  2.92500000  0.00000000
N        N   N      17.22300000  21.45800000  2.21100000  0.00000000
O        O   O      17.94500000  22.09600000  2.98900000  0.00000000
O        O   O      17.59000000  20.35200000  1.79600000  0.00000000
