data_Movie_nu1000_modified_1.1.2_100.000000_0.000000_allcomponents

_cell_length_a  39.97000000
_cell_length_b  40.00000000
_cell_length_c  33.16000000
_cell_angle_alpha  90.00000000
_cell_angle_beta   90.00000000
_cell_angle_gamma  120.00000000


_symmetry_space_group_name_Hall ' P 1'
_symmetry_space_group_name_H-M  'P 1'
_symmetry_Int_Tables_number     1

loop_
_atom_site_label
_atom_site_type_symbol
_atom_site_forcefield_label
_atom_site_Cartn_x
_atom_site_Cartn_y
_atom_site_Cartn_z
_atom_site_charge
P        P   P      11.03500000  23.11900000  1.63600000  0.00000000
O        O   O      10.93100000  21.41200000  1.63500000  0.00000000
O        O   O      11.31800000  23.67200000  3.22900000  0.00000000
O        O   O      9.57000000  23.78100000  1.05400000  0.00000000
C        C   C      11.40500000  25.09900000  3.23000000  0.00000000
H        H   H      10.48800000  25.51200000  2.86600000  0.00000000
H        H   H      11.58200000  25.44500000  4.22700000  0.00000000
H        H   H      12.21100000  25.40700000  2.59700000  0.00000000
C        C   C      9.33200000  23.31800000 -0.27800000  0.00000000
H        H   H      9.26700000  22.25000000 -0.27900000  0.00000000
H        H   H      8.41600000  23.73200000 -0.64100000  0.00000000
H        H   H      10.13900000  23.62600000 -0.91000000  0.00000000
O        O   O      12.32300000  23.61200000  0.62300000  0.00000000
C        C   C      13.54900000  23.05900000  1.11000000  0.00000000
C        C   C      13.98100000  21.80500000  0.65500000  0.00000000
C        C   C      14.31800000  23.76900000  2.04100000  0.00000000
C        C   C      15.18300000  21.26400000  1.13200000  0.00000000
H        H   H      13.39400000  21.26200000 -0.05600000  0.00000000
C        C   C      15.52000000  23.22800000  2.51600000  0.00000000
H        H   H      13.98800000  24.72600000  2.38800000  0.00000000
C        C   C      15.95200000  21.97500000  2.06200000  0.00000000
H        H   H      15.51300000  20.30700000  0.78400000  0.00000000
H        H   H      16.10700000  23.77100000  3.22800000  0.00000000
N        N   N      17.21200000  21.40600000  2.56200000  0.00000000
O        O   O      17.89200000  22.03400000  3.38400000  0.00000000
O        O   O      17.59400000  20.30000000  2.16000000  0.00000000
