data_Movie_nu1000_modified_1.1.2_100.000000_0.000000_allcomponents

_cell_length_a  39.97000000
_cell_length_b  40.00000000
_cell_length_c  33.16000000
_cell_angle_alpha  90.00000000
_cell_angle_beta   90.00000000
_cell_angle_gamma  120.00000000


_symmetry_space_group_name_Hall ' P 1'
_symmetry_space_group_name_H-M  'P 1'
_symmetry_Int_Tables_number     1

loop_
_atom_site_label
_atom_site_type_symbol
_atom_site_forcefield_label
_atom_site_Cartn_x
_atom_site_Cartn_y
_atom_site_Cartn_z
_atom_site_charge
P        P   P      11.19500000  23.11100000  1.70900000  0.00000000
O        O   O      11.08100000  21.40500000  1.65800000  0.00000000
O        O   O      11.53600000  23.61100000  3.30800000  0.00000000
O        O   O      9.71400000  23.79700000  1.20100000  0.00000000
C        C   C      11.63100000  25.03700000  3.35100000  0.00000000
H        H   H      10.70400000  25.46600000  3.03300000  0.00000000
H        H   H      11.84400000  25.35100000  4.35200000  0.00000000
H        H   H      12.41600000  25.36200000  2.70100000  0.00000000
C        C   C      9.42700000  23.37800000 -0.13600000  0.00000000
H        H   H      9.35700000  22.31100000 -0.16900000  0.00000000
H        H   H      8.50100000  23.80700000 -0.45400000  0.00000000
H        H   H      10.21300000  23.70300000 -0.78600000  0.00000000
O        O   O      12.45000000  23.63000000  0.66900000  0.00000000
C        C   C      13.68800000  23.05700000  1.09500000  0.00000000
C        C   C      14.09800000  21.81600000  0.58500000  0.00000000
C        C   C      14.49400000  23.73400000  2.02000000  0.00000000
C        C   C      15.31200000  21.25400000  1.00200000  0.00000000
H        H   H      13.48300000  21.29800000 -0.12100000  0.00000000
C        C   C      15.70800000  23.17200000  2.43600000  0.00000000
H        H   H      14.18100000  24.68000000  2.40900000  0.00000000
C        C   C      16.11700000  21.93200000  1.92700000  0.00000000
H        H   H      15.62500000  20.30800000  0.61300000  0.00000000
H        H   H      16.32200000  23.69000000  3.14300000  0.00000000
N        N   N      17.39000000  21.34200000  2.36400000  0.00000000
O        O   O      18.10200000  21.94100000  3.18200000  0.00000000
O        O   O      17.75200000  20.24800000  1.91500000  0.00000000
