data_Movie_nu1000_modified_1.1.2_100.000000_0.000000_allcomponents

_cell_length_a  39.97000000
_cell_length_b  40.00000000
_cell_length_c  33.16000000
_cell_angle_alpha  90.00000000
_cell_angle_beta   90.00000000
_cell_angle_gamma  120.00000000


_symmetry_space_group_name_Hall ' P 1'
_symmetry_space_group_name_H-M  'P 1'
_symmetry_Int_Tables_number     1

loop_
_atom_site_label
_atom_site_type_symbol
_atom_site_forcefield_label
_atom_site_Cartn_x
_atom_site_Cartn_y
_atom_site_Cartn_z
_atom_site_charge
P        P   P      11.19500000  23.11100000  1.75100000  0.00000000
O        O   O      11.05900000  21.40600000  1.72600000  0.00000000
O        O   O      11.42000000  23.64000000  3.36100000  0.00000000
O        O   O      9.76800000  23.80700000  1.11700000  0.00000000
C        C   C      11.53400000  25.06500000  3.38300000  0.00000000
H        H   H      10.64100000  25.50000000  2.98500000  0.00000000
H        H   H      11.67400000  25.39800000  4.39100000  0.00000000
H        H   H      12.37100000  25.36500000  2.78800000  0.00000000
C        C   C      9.57900000  23.36300000 -0.23000000  0.00000000
H        H   H      9.49400000  22.29700000 -0.24600000  0.00000000
H        H   H      8.68700000  23.79900000 -0.62700000  0.00000000
H        H   H      10.41700000  23.66300000 -0.82400000  0.00000000
O        O   O      12.53400000  23.59000000  0.80000000  0.00000000
C        C   C      13.72700000  23.00800000  1.33200000  0.00000000
C        C   C      14.15500000  21.75200000  0.88100000  0.00000000
C        C   C      14.46900000  23.69400000  2.30300000  0.00000000
C        C   C      15.32500000  21.18200000  1.40200000  0.00000000
H        H   H      13.58800000  21.22800000  0.14000000  0.00000000
C        C   C      15.63900000  23.12400000  2.82300000  0.00000000
H        H   H      14.14300000  24.65300000  2.64700000  0.00000000
C        C   C      16.06700000  21.86800000  2.37200000  0.00000000
H        H   H      15.65200000  20.22300000  1.05700000  0.00000000
H        H   H      16.20500000  23.64800000  3.56500000  0.00000000
N        N   N      17.29300000  21.27000000  2.91800000  0.00000000
O        O   O      17.94900000  21.87600000  3.77600000  0.00000000
O        O   O      17.67200000  20.16100000  2.52000000  0.00000000
