data_Movie_nu1000_modified_1.1.2_100.000000_0.000000_allcomponents

_cell_length_a  39.97000000
_cell_length_b  40.00000000
_cell_length_c  33.16000000
_cell_angle_alpha  90.00000000
_cell_angle_beta   90.00000000
_cell_angle_gamma  120.00000000


_symmetry_space_group_name_Hall ' P 1'
_symmetry_space_group_name_H-M  'P 1'
_symmetry_Int_Tables_number     1

loop_
_atom_site_label
_atom_site_type_symbol
_atom_site_forcefield_label
_atom_site_Cartn_x
_atom_site_Cartn_y
_atom_site_Cartn_z
_atom_site_charge
P        P   P      11.19500000  23.11100000  1.70900000  0.00000000
O        O   O      11.08300000  21.40500000  1.68400000  0.00000000
O        O   O      11.41200000  23.64300000  3.31900000  0.00000000
O        O   O      9.75800000  23.78600000  1.07400000  0.00000000
C        C   C      11.50600000  25.07000000  3.34100000  0.00000000
H        H   H      10.60700000  25.49200000  2.94300000  0.00000000
H        H   H      11.64200000  25.40400000  4.34900000  0.00000000
H        H   H      12.33900000  25.38100000  2.74600000  0.00000000
C        C   C      9.57500000  23.34100000 -0.27200000  0.00000000
H        H   H      9.50600000  22.27300000 -0.28800000  0.00000000
H        H   H      8.67700000  23.76300000 -0.66900000  0.00000000
H        H   H      10.41000000  23.65200000 -0.86600000  0.00000000
O        O   O      12.52700000  23.60900000  0.75800000  0.00000000
C        C   C      13.72800000  23.04400000  1.29000000  0.00000000
C        C   C      14.17400000  21.79300000  0.83900000  0.00000000
C        C   C      14.46100000  23.74000000  2.26100000  0.00000000
C        C   C      15.35200000  21.24000000  1.36000000  0.00000000
H        H   H      13.61400000  21.26200000  0.09800000  0.00000000
C        C   C      15.63900000  23.18700000  2.78100000  0.00000000
H        H   H      14.12100000  24.69400000  2.60500000  0.00000000
C        C   C      16.08400000  21.93700000  2.33000000  0.00000000
H        H   H      15.69200000  20.28600000  1.01500000  0.00000000
H        H   H      16.19700000  23.71900000  3.52300000  0.00000000
N        N   N      17.31900000  21.35600000  2.87600000  0.00000000
O        O   O      17.96600000  21.97100000  3.73400000  0.00000000
O        O   O      17.71300000  20.25300000  2.47800000  0.00000000
