data_Movie_nu1000_modified_1.1.2_100.000000_0.000000_allcomponents

_cell_length_a  39.97000000
_cell_length_b  40.00000000
_cell_length_c  33.16000000
_cell_angle_alpha  90.00000000
_cell_angle_beta   90.00000000
_cell_angle_gamma  120.00000000


_symmetry_space_group_name_Hall ' P 1'
_symmetry_space_group_name_H-M  'P 1'
_symmetry_Int_Tables_number     1

loop_
_atom_site_label
_atom_site_type_symbol
_atom_site_forcefield_label
_atom_site_Cartn_x
_atom_site_Cartn_y
_atom_site_Cartn_z
_atom_site_charge
P        P   P      11.22700000  23.11100000  1.72500000  0.00000000
O        O   O      11.12800000  21.40400000  1.70700000  0.00000000
O        O   O      11.57100000  23.64500000  3.31200000  0.00000000
O        O   O      9.73700000  23.77300000  1.21100000  0.00000000
C        C   C      11.65400000  25.07200000  3.32600000  0.00000000
H        H   H      10.72100000  25.48700000  3.00500000  0.00000000
H        H   H      11.86900000  25.40800000  4.32000000  0.00000000
H        H   H      12.43200000  25.39200000  2.66500000  0.00000000
C        C   C      9.44700000  23.32600000 -0.11600000  0.00000000
H        H   H      9.38600000  22.25800000 -0.12800000  0.00000000
H        H   H      8.51500000  23.74000000 -0.43800000  0.00000000
H        H   H      10.22700000  23.64500000 -0.77700000  0.00000000
O        O   O      12.47100000  23.62100000  0.66800000  0.00000000
C        C   C      13.71700000  23.06700000  1.09800000  0.00000000
C        C   C      14.13500000  21.82000000  0.61000000  0.00000000
C        C   C      14.52100000  23.76900000  2.00600000  0.00000000
C        C   C      15.35700000  21.27800000  1.03200000  0.00000000
H        H   H      13.52200000  21.28400000 -0.08300000  0.00000000
C        C   C      15.74300000  23.22700000  2.42600000  0.00000000
H        H   H      14.20200000  24.72100000  2.37800000  0.00000000
C        C   C      16.16000000  21.98100000  1.93900000  0.00000000
H        H   H      15.67700000  20.32700000  0.66000000  0.00000000
H        H   H      16.35600000  23.76400000  3.11900000  0.00000000
N        N   N      17.44100000  21.41200000  2.38100000  0.00000000
O        O   O      18.15200000  22.03200000  3.18300000  0.00000000
O        O   O      17.81100000  20.31200000  1.95100000  0.00000000
