data_Movie_nu1000_modified_1.1.2_100.000000_0.000000_allcomponents

_cell_length_a  39.97000000
_cell_length_b  40.00000000
_cell_length_c  33.16000000
_cell_angle_alpha  90.00000000
_cell_angle_beta   90.00000000
_cell_angle_gamma  120.00000000


_symmetry_space_group_name_Hall ' P 1'
_symmetry_space_group_name_H-M  'P 1'
_symmetry_Int_Tables_number     1

loop_
_atom_site_label
_atom_site_type_symbol
_atom_site_forcefield_label
_atom_site_Cartn_x
_atom_site_Cartn_y
_atom_site_Cartn_z
_atom_site_charge
P        P   P      11.19500000  23.11100000  1.75100000  0.00000000
O        O   O      11.09700000  21.40400000  1.73200000  0.00000000
O        O   O      11.51300000  23.64500000  3.34400000  0.00000000
O        O   O      9.71400000  23.77300000  1.21300000  0.00000000
C        C   C      11.59500000  25.07200000  3.36000000  0.00000000
H        H   H      10.66800000  25.48700000  3.02300000  0.00000000
H        H   H      11.79400000  25.40800000  4.35700000  0.00000000
H        H   H      12.38500000  25.39200000  2.71200000  0.00000000
C        C   C      9.44700000  23.32600000 -0.11900000  0.00000000
H        H   H      9.38500000  22.25800000 -0.13100000  0.00000000
H        H   H      8.52000000  23.74000000 -0.45600000  0.00000000
H        H   H      10.23700000  23.64500000 -0.76700000  0.00000000
O        O   O      12.45700000  23.62100000  0.71500000  0.00000000
C        C   C      13.69500000  23.06700000  1.16600000  0.00000000
C        C   C      14.12200000  21.82000000  0.68600000  0.00000000
C        C   C      14.48400000  23.76900000  2.08700000  0.00000000
C        C   C      15.33600000  21.27800000  1.12800000  0.00000000
H        H   H      13.52000000  21.28400000 -0.01700000  0.00000000
C        C   C      15.69900000  23.22700000  2.52800000  0.00000000
H        H   H      14.15900000  24.72100000  2.45400000  0.00000000
C        C   C      16.12400000  21.98100000  2.04900000  0.00000000
H        H   H      15.66200000  20.32700000  0.76100000  0.00000000
H        H   H      16.30000000  23.76400000  3.23200000  0.00000000
N        N   N      17.39800000  21.41200000  2.51100000  0.00000000
O        O   O      18.09400000  22.03200000  3.32500000  0.00000000
O        O   O      17.77500000  20.31200000  2.08800000  0.00000000
