data_Movie_nu1000_modified_1.1.2_100.000000_0.000000_allcomponents

_cell_length_a  39.97000000
_cell_length_b  40.00000000
_cell_length_c  33.16000000
_cell_angle_alpha  90.00000000
_cell_angle_beta   90.00000000
_cell_angle_gamma  120.00000000


_symmetry_space_group_name_Hall ' P 1'
_symmetry_space_group_name_H-M  'P 1'
_symmetry_Int_Tables_number     1

loop_
_atom_site_label
_atom_site_type_symbol
_atom_site_forcefield_label
_atom_site_Cartn_x
_atom_site_Cartn_y
_atom_site_Cartn_z
_atom_site_charge
P        P   P      11.23300000  23.10800000  1.62500000  0.00000000
O        O   O      11.10700000  21.40300000  1.62600000  0.00000000
O        O   O      11.60800000  23.65300000  3.20200000  0.00000000
O        O   O      9.74700000  23.78900000  1.12500000  0.00000000
C        C   C      11.71300000  25.07800000  3.20100000  0.00000000
H        H   H      10.78300000  25.50500000  2.88800000  0.00000000
H        H   H      11.94700000  25.42000000  4.18800000  0.00000000
H        H   H      12.48700000  25.37900000  2.52700000  0.00000000
C        C   C      9.43200000  23.33400000 -0.19400000  0.00000000
H        H   H      9.35400000  22.26600000 -0.19300000  0.00000000
H        H   H      8.50300000  23.76000000 -0.50600000  0.00000000
H        H   H      10.20700000  23.63400000 -0.86800000  0.00000000
O        O   O      12.47100000  23.58800000  0.54600000  0.00000000
C        C   C      13.71400000  23.01900000  0.96500000  0.00000000
C        C   C      14.10600000  21.76100000  0.48500000  0.00000000
C        C   C      14.54100000  23.71700000  1.85500000  0.00000000
C        C   C      15.32400000  21.20300000  0.89500000  0.00000000
H        H   H      13.47400000  21.22700000 -0.19400000  0.00000000
C        C   C      15.76000000  23.15900000  2.26400000  0.00000000
H        H   H      14.24200000  24.67700000  2.22200000  0.00000000
C        C   C      16.15100000  21.90300000  1.78400000  0.00000000
H        H   H      15.62300000  20.24300000  0.52800000  0.00000000
H        H   H      16.39100000  23.69300000  2.94400000  0.00000000
N        N   N      17.42900000  21.31700000  2.21400000  0.00000000
O        O   O      18.15900000  21.93400000  3.00000000  0.00000000
O        O   O      17.77500000  20.20700000  1.79100000  0.00000000
