data_Movie_nu1000_modified_1.1.2_100.000000_0.000000_allcomponents

_cell_length_a  39.97000000
_cell_length_b  40.00000000
_cell_length_c  33.16000000
_cell_angle_alpha  90.00000000
_cell_angle_beta   90.00000000
_cell_angle_gamma  120.00000000


_symmetry_space_group_name_Hall ' P 1'
_symmetry_space_group_name_H-M  'P 1'
_symmetry_Int_Tables_number     1

loop_
_atom_site_label
_atom_site_type_symbol
_atom_site_forcefield_label
_atom_site_Cartn_x
_atom_site_Cartn_y
_atom_site_Cartn_z
_atom_site_charge
P        P   P      11.03500000  23.11900000  1.64700000  0.00000000
O        O   O      10.96600000  21.41100000  1.64800000  0.00000000
O        O   O      11.34300000  23.67800000  3.23300000  0.00000000
O        O   O      9.54400000  23.75000000  1.09900000  0.00000000
C        C   C      11.40100000  25.10600000  3.23300000  0.00000000
H        H   H      10.46700000  25.50100000  2.89000000  0.00000000
H        H   H      11.59300000  25.45600000  4.22600000  0.00000000
H        H   H      12.18600000  25.43100000  2.58200000  0.00000000
C        C   C      9.28600000  23.28300000 -0.22800000  0.00000000
H        H   H      9.24200000  22.21400000 -0.22700000  0.00000000
H        H   H      8.35300000  23.67800000 -0.57000000  0.00000000
H        H   H      10.07100000  23.60800000 -0.87800000  0.00000000
O        O   O      12.29000000  23.63800000  0.60600000  0.00000000
C        C   C      13.53700000  23.11000000  1.06500000  0.00000000
C        C   C      13.98500000  21.86600000  0.59900000  0.00000000
C        C   C      14.31300000  23.83700000  1.97800000  0.00000000
C        C   C      15.20800000  21.34900000  1.04900000  0.00000000
H        H   H      13.39200000  21.31100000 -0.09800000  0.00000000
C        C   C      15.53600000  23.32000000  2.42600000  0.00000000
H        H   H      13.97100000  24.78700000  2.33300000  0.00000000
C        C   C      15.98300000  22.07600000  1.96200000  0.00000000
H        H   H      15.54900000  20.39900000  0.69400000  0.00000000
H        H   H      16.12700000  23.87500000  3.12400000  0.00000000
N        N   N      17.26500000  21.53300000  2.43200000  0.00000000
O        O   O      17.95000000  22.17500000  3.24000000  0.00000000
O        O   O      17.66100000  20.43500000  2.02200000  0.00000000
