data_Movie_nu1000_modified_1.1.2_100.000000_0.000000_allcomponents

_cell_length_a  39.97000000
_cell_length_b  40.00000000
_cell_length_c  33.16000000
_cell_angle_alpha  90.00000000
_cell_angle_beta   90.00000000
_cell_angle_gamma  120.00000000


_symmetry_space_group_name_Hall ' P 1'
_symmetry_space_group_name_H-M  'P 1'
_symmetry_Int_Tables_number     1

loop_
_atom_site_label
_atom_site_type_symbol
_atom_site_forcefield_label
_atom_site_Cartn_x
_atom_site_Cartn_y
_atom_site_Cartn_z
_atom_site_charge
P        P   P      10.74200000  23.11900000  1.55600000  0.00000000
O        O   O      10.82600000  21.41300000  1.63000000  0.00000000
O        O   O      11.17200000  23.77700000  3.07500000  0.00000000
O        O   O      9.14900000  23.59600000  1.15900000  0.00000000
C        C   C      11.10200000  25.20300000  3.01400000  0.00000000
H        H   H      10.10500000  25.50100000  2.76400000  0.00000000
H        H   H      11.37000000  25.61600000  3.96400000  0.00000000
H        H   H      11.77800000  25.56100000  2.26600000  0.00000000
C        C   C      8.78900000  23.04500000 -0.11200000  0.00000000
H        H   H      8.84200000  21.97700000 -0.06600000  0.00000000
H        H   H      7.79300000  23.34300000 -0.36000000  0.00000000
H        H   H      9.46700000  23.40300000 -0.85900000  0.00000000
O        O   O      11.82300000  23.69200000  0.36100000  0.00000000
C        C   C      13.15500000  23.29400000  0.69400000  0.00000000
C        C   C      13.65900000  22.07000000  0.22800000  0.00000000
C        C   C      13.95900000  24.12500000  1.48500000  0.00000000
C        C   C      14.96500000  21.68000000  0.55500000  0.00000000
H        H   H      13.04500000  21.43400000 -0.37500000  0.00000000
C        C   C      15.26500000  23.73600000  1.81000000  0.00000000
H        H   H      13.57500000  25.05900000  1.84000000  0.00000000
C        C   C      15.76800000  22.51300000  1.34600000  0.00000000
H        H   H      15.34900000  20.74700000  0.20000000  0.00000000
H        H   H      15.87800000  24.37100000  2.41500000  0.00000000
N        N   N      17.13700000  22.10300000  1.68700000  0.00000000
O        O   O      17.84700000  22.83900000  2.38600000  0.00000000
O        O   O      17.58200000  21.02400000  1.27700000  0.00000000
