data_Movie_nu1000_modified_1.1.2_100.000000_0.000000_allcomponents

_cell_length_a  39.97000000
_cell_length_b  40.00000000
_cell_length_c  33.16000000
_cell_angle_alpha  90.00000000
_cell_angle_beta   90.00000000
_cell_angle_gamma  120.00000000


_symmetry_space_group_name_Hall ' P 1'
_symmetry_space_group_name_H-M  'P 1'
_symmetry_Int_Tables_number     1

loop_
_atom_site_label
_atom_site_type_symbol
_atom_site_forcefield_label
_atom_site_Cartn_x
_atom_site_Cartn_y
_atom_site_Cartn_z
_atom_site_charge
P        P   P      11.19500000  23.11100000  1.68000000  0.00000000
O        O   O      11.04800000  21.40800000  1.61700000  0.00000000
O        O   O      11.61200000  23.58800000  3.26800000  0.00000000
O        O   O      9.70600000  23.82800000  1.24200000  0.00000000
C        C   C      11.73500000  25.01200000  3.32100000  0.00000000
H        H   H      10.80300000  25.46000000  3.04600000  0.00000000
H        H   H      11.99600000  25.31200000  4.31400000  0.00000000
H        H   H      12.49700000  25.32900000  2.64100000  0.00000000
C        C   C      9.35600000  23.42800000 -0.08600000  0.00000000
H        H   H      9.26500000  22.36300000 -0.12600000  0.00000000
H        H   H      8.42500000  23.87700000 -0.36000000  0.00000000
H        H   H      10.11900000  23.74600000 -0.76600000  0.00000000
O        O   O      12.41400000  23.61900000  0.59200000  0.00000000
C        C   C      13.65900000  23.01900000  0.95900000  0.00000000
C        C   C      14.02400000  21.77700000  0.42100000  0.00000000
C        C   C      14.51500000  23.67200000  1.85700000  0.00000000
C        C   C      15.24500000  21.19000000  0.78100000  0.00000000
H        H   H      13.37100000  21.27800000 -0.26400000  0.00000000
C        C   C      15.73500000  23.08500000  2.21500000  0.00000000
H        H   H      14.23600000  24.62000000  2.26700000  0.00000000
C        C   C      16.10000000  21.84400000  1.67800000  0.00000000
H        H   H      15.52400000  20.24200000  0.37000000  0.00000000
H        H   H      16.38800000  23.58400000  2.90100000  0.00000000
N        N   N      17.38000000  21.22700000  2.05400000  0.00000000
O        O   O      18.13600000  21.80400000  2.84700000  0.00000000
O        O   O      17.70300000  20.13100000  1.57900000  0.00000000
