data_Movie_nu1000_modified_1.1.2_100.000000_0.000000_allcomponents

_cell_length_a  39.97000000
_cell_length_b  40.00000000
_cell_length_c  33.16000000
_cell_angle_alpha  90.00000000
_cell_angle_beta   90.00000000
_cell_angle_gamma  120.00000000


_symmetry_space_group_name_Hall ' P 1'
_symmetry_space_group_name_H-M  'P 1'
_symmetry_Int_Tables_number     1

loop_
_atom_site_label
_atom_site_type_symbol
_atom_site_forcefield_label
_atom_site_Cartn_x
_atom_site_Cartn_y
_atom_site_Cartn_z
_atom_site_charge
P        P   P      11.26800000  23.10800000  1.76000000  0.00000000
O        O   O      11.14800000  21.40200000  1.75100000  0.00000000
O        O   O      11.58400000  23.64900000  3.35100000  0.00000000
O        O   O      9.79900000  23.78600000  1.20900000  0.00000000
C        C   C      11.68400000  25.07500000  3.35900000  0.00000000
H        H   H      10.76500000  25.49900000  3.01400000  0.00000000
H        H   H      11.88200000  25.41400000  4.35400000  0.00000000
H        H   H      12.48200000  25.38000000  2.71300000  0.00000000
C        C   C      9.53300000  23.33400000 -0.12200000  0.00000000
H        H   H      9.45800000  22.26600000 -0.12800000  0.00000000
H        H   H      8.61400000  23.75800000 -0.46600000  0.00000000
H        H   H      10.33100000  23.63900000 -0.76700000  0.00000000
O        O   O      12.54200000  23.59600000  0.72800000  0.00000000
C        C   C      13.77100000  23.02900000  1.18900000  0.00000000
C        C   C      14.18400000  21.77400000  0.71900000  0.00000000
C        C   C      14.56400000  23.72700000  2.11000000  0.00000000
C        C   C      15.38900000  21.21900000  1.17100000  0.00000000
H        H   H      13.57900000  21.24000000  0.01600000  0.00000000
C        C   C      15.76900000  23.17200000  2.56100000  0.00000000
H        H   H      14.24800000  24.68500000  2.46900000  0.00000000
C        C   C      16.18100000  21.91800000  2.09200000  0.00000000
H        H   H      15.70500000  20.26100000  0.81200000  0.00000000
H        H   H      16.37300000  23.70500000  3.26500000  0.00000000
N        N   N      17.44500000  21.33500000  2.56500000  0.00000000
O        O   O      18.14400000  21.95200000  3.37900000  0.00000000
O        O   O      17.81000000  20.22800000  2.15100000  0.00000000
