data_Movie_nu1000_modified_1.1.2_100.000000_0.000000_allcomponents

_cell_length_a  39.97000000
_cell_length_b  40.00000000
_cell_length_c  33.16000000
_cell_angle_alpha  90.00000000
_cell_angle_beta   90.00000000
_cell_angle_gamma  120.00000000


_symmetry_space_group_name_Hall ' P 1'
_symmetry_space_group_name_H-M  'P 1'
_symmetry_Int_Tables_number     1

loop_
_atom_site_label
_atom_site_type_symbol
_atom_site_forcefield_label
_atom_site_Cartn_x
_atom_site_Cartn_y
_atom_site_Cartn_z
_atom_site_charge
P        P   P      11.23300000  23.10800000  1.62500000  0.00000000
O        O   O      11.10300000  21.40300000  1.62000000  0.00000000
O        O   O      11.60900000  23.64600000  3.20400000  0.00000000
O        O   O      9.74900000  23.79500000  1.12800000  0.00000000
C        C   C      11.71800000  25.07100000  3.20900000  0.00000000
H        H   H      10.78900000  25.50100000  2.89700000  0.00000000
H        H   H      11.95300000  25.40900000  4.19700000  0.00000000
H        H   H      12.49300000  25.37200000  2.53500000  0.00000000
C        C   C      9.43300000  23.34500000 -0.19300000  0.00000000
H        H   H      9.35200000  22.27800000 -0.19600000  0.00000000
H        H   H      8.50400000  23.77500000 -0.50400000  0.00000000
H        H   H      10.20900000  23.64600000 -0.86600000  0.00000000
O        O   O      12.47200000  23.58900000  0.54800000  0.00000000
C        C   C      13.71300000  23.01500000  0.96500000  0.00000000
C        C   C      14.10200000  21.75800000  0.48000000  0.00000000
C        C   C      14.54300000  23.70800000  1.85700000  0.00000000
C        C   C      15.31900000  21.19600000  0.88800000  0.00000000
H        H   H      13.46900000  21.22800000 -0.20100000  0.00000000
C        C   C      15.76000000  23.14600000  2.26400000  0.00000000
H        H   H      14.24600000  24.66700000  2.22800000  0.00000000
C        C   C      16.14800000  21.89000000  1.78000000  0.00000000
H        H   H      15.61600000  20.23600000  0.51800000  0.00000000
H        H   H      16.39200000  23.67500000  2.94600000  0.00000000
N        N   N      17.42400000  21.29900000  2.20700000  0.00000000
O        O   O      18.15600000  21.91100000  2.99600000  0.00000000
O        O   O      17.76800000  20.19000000  1.78000000  0.00000000
