data_Movie_nu1000_modified_1.1.2_100.000000_0.000000_allcomponents

_cell_length_a  39.97000000
_cell_length_b  40.00000000
_cell_length_c  33.16000000
_cell_angle_alpha  90.00000000
_cell_angle_beta   90.00000000
_cell_angle_gamma  120.00000000


_symmetry_space_group_name_Hall ' P 1'
_symmetry_space_group_name_H-M  'P 1'
_symmetry_Int_Tables_number     1

loop_
_atom_site_label
_atom_site_type_symbol
_atom_site_forcefield_label
_atom_site_Cartn_x
_atom_site_Cartn_y
_atom_site_Cartn_z
_atom_site_charge
P        P   P      10.10200000  24.86200000  1.27200000  0.00000000
O        O   O      10.39200000  23.19700000  1.53400000  0.00000000
O        O   O      9.50200000  25.56800000  2.70900000  0.00000000
O        O   O      8.95400000  25.05100000  0.02000000  0.00000000
C        C   C      9.25900000  26.96000000  2.49000000  0.00000000
H        H   H      8.54100000  27.07800000  1.70600000  0.00000000
H        H   H      8.88300000  27.40300000  3.38900000  0.00000000
H        H   H      10.17300000  27.44200000  2.21100000  0.00000000
C        C   C      9.45500000  24.45900000 -1.18100000  0.00000000
H        H   H      9.63700000  23.41800000 -1.01800000  0.00000000
H        H   H      8.73700000  24.57800000 -1.96400000  0.00000000
H        H   H      10.37000000  24.94100000 -1.46000000  0.00000000
O        O   O      11.56300000  25.63100000  0.82500000  0.00000000
C        C   C      12.52400000  25.47400000  1.87300000  0.00000000
C        C   C      13.38200000  24.36500000  1.87500000  0.00000000
C        C   C      12.60800000  26.42700000  2.89700000  0.00000000
C        C   C      14.32400000  24.21100000  2.90200000  0.00000000
H        H   H      13.31800000  23.63700000  1.09400000  0.00000000
C        C   C      13.55000000  26.27200000  3.92200000  0.00000000
H        H   H      11.95300000  27.27300000  2.89500000  0.00000000
C        C   C      14.40800000  25.16400000  3.92500000  0.00000000
H        H   H      14.97900000  23.36500000  2.90400000  0.00000000
H        H   H      13.61400000  27.00000000  4.70400000  0.00000000
N        N   N      15.39600000  25.00200000  5.00100000  0.00000000
O        O   O      15.47000000  25.84400000  5.90600000  0.00000000
O        O   O      16.15300000  24.02400000  5.00400000  0.00000000
