data_Movie_nu1000_modified_1.1.2_100.000000_0.000000_allcomponents

_cell_length_a  39.97000000
_cell_length_b  40.00000000
_cell_length_c  33.16000000
_cell_angle_alpha  90.00000000
_cell_angle_beta   90.00000000
_cell_angle_gamma  120.00000000


_symmetry_space_group_name_Hall ' P 1'
_symmetry_space_group_name_H-M  'P 1'
_symmetry_Int_Tables_number     1

loop_
_atom_site_label
_atom_site_type_symbol
_atom_site_forcefield_label
_atom_site_Cartn_x
_atom_site_Cartn_y
_atom_site_Cartn_z
_atom_site_charge
P        P   P      10.39900000  23.25100000  1.55600000  0.00000000
O        O   O      10.78300000  21.58700000  1.63400000  0.00000000
O        O   O      10.63300000  23.96200000  3.09400000  0.00000000
O        O   O      8.76700000  23.43900000  1.08400000  0.00000000
C        C   C      10.31300000  25.35400000  3.02900000  0.00000000
H        H   H      9.29100000  25.47100000  2.73300000  0.00000000
H        H   H      10.45900000  25.80000000  3.99100000  0.00000000
H        H   H      10.94800000  25.83300000  2.31400000  0.00000000
C        C   C      8.57000000  22.84400000 -0.20100000  0.00000000
H        H   H      8.81100000  21.80200000 -0.15300000  0.00000000
H        H   H      7.54900000  22.96100000 -0.49700000  0.00000000
H        H   H      9.20600000  23.32400000 -0.91600000  0.00000000
O        O   O      11.41400000  24.01800000  0.41200000  0.00000000
C        C   C      12.78000000  23.86100000  0.80800000  0.00000000
C        C   C      13.51400000  22.75100000  0.36700000  0.00000000
C        C   C      13.38400000  24.81600000  1.63600000  0.00000000
C        C   C      14.85200000  22.59800000  0.75400000  0.00000000
H        H   H      13.05300000  22.02100000 -0.26500000  0.00000000
C        C   C      14.72300000  24.66300000  2.02200000  0.00000000
H        H   H      12.82400000  25.66400000  1.97300000  0.00000000
C        C   C      15.45600000  23.55400000  1.58100000  0.00000000
H        H   H      15.41300000  21.75100000  0.41700000  0.00000000
H        H   H      15.18400000  25.39300000  2.65400000  0.00000000
N        N   N      16.86000000  23.39300000  1.98700000  0.00000000
O        O   O      17.39400000  24.23700000  2.71800000  0.00000000
O        O   O      17.50800000  22.41400000  1.59800000  0.00000000
