data_Movie_nu1000_modified_1.1.2_100.000000_0.000000_allcomponents

_cell_length_a  39.97000000
_cell_length_b  40.00000000
_cell_length_c  33.16000000
_cell_angle_alpha  90.00000000
_cell_angle_beta   90.00000000
_cell_angle_gamma  120.00000000


_symmetry_space_group_name_Hall ' P 1'
_symmetry_space_group_name_H-M  'P 1'
_symmetry_Int_Tables_number     1

loop_
_atom_site_label
_atom_site_type_symbol
_atom_site_forcefield_label
_atom_site_Cartn_x
_atom_site_Cartn_y
_atom_site_Cartn_z
_atom_site_charge
P        P   P      11.03500000  23.11900000  1.63600000  0.00000000
O        O   O      10.93100000  21.41200000  1.65500000  0.00000000
O        O   O      11.31500000  23.69100000  3.22300000  0.00000000
O        O   O      9.57100000  23.77400000  1.04300000  0.00000000
C        C   C      11.40200000  25.11700000  3.20700000  0.00000000
H        H   H      10.48600000  25.52700000  2.83600000  0.00000000
H        H   H      11.57700000  25.47600000  4.20000000  0.00000000
H        H   H      12.20900000  25.41800000  2.57200000  0.00000000
C        C   C      9.33600000  23.29500000 -0.28400000  0.00000000
H        H   H      9.27100000  22.22700000 -0.27200000  0.00000000
H        H   H      8.42100000  23.70500000 -0.65400000  0.00000000
H        H   H      10.14500000  23.59600000 -0.91800000  0.00000000
O        O   O      12.32500000  23.60000000  0.62000000  0.00000000
C        C   C      13.55000000  23.05300000  1.11600000  0.00000000
C        C   C      13.98400000  21.79400000  0.67700000  0.00000000
C        C   C      14.31800000  23.77400000  2.04000000  0.00000000
C        C   C      15.18400000  21.25800000  1.16300000  0.00000000
H        H   H      13.39700000  21.24200000 -0.02800000  0.00000000
C        C   C      15.51800000  23.23900000  2.52500000  0.00000000
H        H   H      13.98700000  24.73500000  2.37600000  0.00000000
C        C   C      15.95100000  21.98000000  2.08700000  0.00000000
H        H   H      15.51500000  20.29700000  0.82800000  0.00000000
H        H   H      16.10300000  23.79000000  3.23100000  0.00000000
N        N   N      17.21000000  21.41800000  2.59600000  0.00000000
O        O   O      17.88800000  22.05500000  3.41200000  0.00000000
O        O   O      17.59300000  20.30600000  2.20800000  0.00000000
