data_Movie_nu1000_modified_1.1.2_100.000000_0.000000_allcomponents

_cell_length_a  39.97000000
_cell_length_b  40.00000000
_cell_length_c  33.16000000
_cell_angle_alpha  90.00000000
_cell_angle_beta   90.00000000
_cell_angle_gamma  120.00000000


_symmetry_space_group_name_Hall ' P 1'
_symmetry_space_group_name_H-M  'P 1'
_symmetry_Int_Tables_number     1

loop_
_atom_site_label
_atom_site_type_symbol
_atom_site_forcefield_label
_atom_site_Cartn_x
_atom_site_Cartn_y
_atom_site_Cartn_z
_atom_site_charge
P        P   P      11.16100000  23.11100000  1.73100000  0.00000000
O        O   O      11.06200000  21.40400000  1.71400000  0.00000000
O        O   O      11.50500000  23.64500000  3.31800000  0.00000000
O        O   O      9.67100000  23.77300000  1.21800000  0.00000000
C        C   C      11.58800000  25.07200000  3.33300000  0.00000000
H        H   H      10.65500000  25.48700000  3.01100000  0.00000000
H        H   H      11.80300000  25.40800000  4.32600000  0.00000000
H        H   H      12.36600000  25.39200000  2.67200000  0.00000000
C        C   C      9.38100000  23.32600000 -0.11000000  0.00000000
H        H   H      9.32000000  22.25800000 -0.12100000  0.00000000
H        H   H      8.45000000  23.74000000 -0.43100000  0.00000000
H        H   H      10.16100000  23.64500000 -0.77000000  0.00000000
O        O   O      12.40500000  23.62100000  0.67400000  0.00000000
C        C   C      13.65100000  23.06700000  1.10400000  0.00000000
C        C   C      14.06900000  21.82000000  0.61700000  0.00000000
C        C   C      14.45500000  23.76900000  2.01200000  0.00000000
C        C   C      15.29100000  21.27800000  1.03900000  0.00000000
H        H   H      13.45600000  21.28400000 -0.07600000  0.00000000
C        C   C      15.67700000  23.22700000  2.43200000  0.00000000
H        H   H      14.13600000  24.72100000  2.38400000  0.00000000
C        C   C      16.09400000  21.98100000  1.94600000  0.00000000
H        H   H      15.61100000  20.32700000  0.66700000  0.00000000
H        H   H      16.29000000  23.76400000  3.12600000  0.00000000
N        N   N      17.37500000  21.41200000  2.38700000  0.00000000
O        O   O      18.08600000  22.03200000  3.19000000  0.00000000
O        O   O      17.74500000  20.31200000  1.95800000  0.00000000
