data_Movie_nu1000_modified_1.1.2_100.000000_0.000000_allcomponents

_cell_length_a  39.97000000
_cell_length_b  40.00000000
_cell_length_c  33.16000000
_cell_angle_alpha  90.00000000
_cell_angle_beta   90.00000000
_cell_angle_gamma  120.00000000


_symmetry_space_group_name_Hall ' P 1'
_symmetry_space_group_name_H-M  'P 1'
_symmetry_Int_Tables_number     1

loop_
_atom_site_label
_atom_site_type_symbol
_atom_site_forcefield_label
_atom_site_Cartn_x
_atom_site_Cartn_y
_atom_site_Cartn_z
_atom_site_charge
P        P   P      11.23300000  23.10800000  1.62500000  0.00000000
O        O   O      11.03300000  21.41000000  1.62900000  0.00000000
O        O   O      11.73700000  23.62600000  3.17500000  0.00000000
O        O   O      9.74800000  23.85700000  1.23000000  0.00000000
C        C   C      11.90500000  25.04500000  3.17200000  0.00000000
H        H   H      10.97500000  25.51400000  2.92400000  0.00000000
H        H   H      12.22000000  25.37000000  4.14200000  0.00000000
H        H   H      12.64500000  25.31500000  2.44800000  0.00000000
C        C   C      9.32500000  23.42400000 -0.06700000  0.00000000
H        H   H      9.20000000  22.36200000 -0.06500000  0.00000000
H        H   H      8.39600000  23.89300000 -0.31400000  0.00000000
H        H   H      10.06600000  23.69500000 -0.79100000  0.00000000
O        O   O      12.41500000  23.54000000  0.46700000  0.00000000
C        C   C      13.65700000  22.91400000  0.79800000  0.00000000
C        C   C      13.96000000  21.64400000  0.28800000  0.00000000
C        C   C      14.57300000  23.57000000  1.63200000  0.00000000
C        C   C      15.17700000  21.03000000  0.61300000  0.00000000
H        H   H      13.26100000  21.14300000 -0.34900000  0.00000000
C        C   C      15.79000000  22.95700000  1.95600000  0.00000000
H        H   H      14.34200000  24.53900000  2.02200000  0.00000000
C        C   C      16.09200000  21.68700000  1.44600000  0.00000000
H        H   H      15.40800000  20.06100000  0.22300000  0.00000000
H        H   H      16.48900000  23.45800000  2.59300000  0.00000000
N        N   N      17.36900000  21.04300000  1.78600000  0.00000000
O        O   O      18.17800000  21.62200000  2.52300000  0.00000000
O        O   O      17.63600000  19.92200000  1.33600000  0.00000000
