data_Movie_nu1000_modified_1.1.2_100.000000_0.000000_allcomponents

_cell_length_a  39.97000000
_cell_length_b  40.00000000
_cell_length_c  33.16000000
_cell_angle_alpha  90.00000000
_cell_angle_beta   90.00000000
_cell_angle_gamma  120.00000000


_symmetry_space_group_name_Hall ' P 1'
_symmetry_space_group_name_H-M  'P 1'
_symmetry_Int_Tables_number     1

loop_
_atom_site_label
_atom_site_type_symbol
_atom_site_forcefield_label
_atom_site_Cartn_x
_atom_site_Cartn_y
_atom_site_Cartn_z
_atom_site_charge
P        P   P      11.23300000  23.10800000  1.62500000  0.00000000
O        O   O      11.10300000  21.40300000  1.62900000  0.00000000
O        O   O      11.71500000  23.64600000  3.17500000  0.00000000
O        O   O      9.71800000  23.79500000  1.23000000  0.00000000
C        C   C      11.82400000  25.07100000  3.17200000  0.00000000
H        H   H      10.87600000  25.50100000  2.92400000  0.00000000
H        H   H      12.12600000  25.40900000  4.14200000  0.00000000
H        H   H      12.55200000  25.37200000  2.44800000  0.00000000
C        C   C      9.31400000  23.34500000 -0.06700000  0.00000000
H        H   H      9.23300000  22.27800000 -0.06500000  0.00000000
H        H   H      8.36600000  23.77500000 -0.31400000  0.00000000
H        H   H      10.04200000  23.64600000 -0.79100000  0.00000000
O        O   O      12.39600000  23.58900000  0.46700000  0.00000000
C        C   C      13.66300000  23.01500000  0.79800000  0.00000000
C        C   C      14.01800000  21.75800000  0.28800000  0.00000000
C        C   C      14.55100000  23.70800000  1.63200000  0.00000000
C        C   C      15.26000000  21.19600000  0.61300000  0.00000000
H        H   H      13.34000000  21.22800000 -0.34900000  0.00000000
C        C   C      15.79300000  23.14600000  1.95600000  0.00000000
H        H   H      14.28000000  24.66700000  2.02200000  0.00000000
C        C   C      16.14700000  21.89000000  1.44600000  0.00000000
H        H   H      15.53100000  20.23600000  0.22300000  0.00000000
H        H   H      16.47000000  23.67500000  2.59300000  0.00000000
N        N   N      17.44900000  21.29900000  1.78600000  0.00000000
O        O   O      18.23300000  21.91100000  2.52300000  0.00000000
O        O   O      17.76300000  20.19000000  1.33600000  0.00000000
