data_Movie_nu1000_modified_1.1.2_100.000000_0.000000_allcomponents

_cell_length_a  39.97000000
_cell_length_b  40.00000000
_cell_length_c  33.16000000
_cell_angle_alpha  90.00000000
_cell_angle_beta   90.00000000
_cell_angle_gamma  120.00000000


_symmetry_space_group_name_Hall ' P 1'
_symmetry_space_group_name_H-M  'P 1'
_symmetry_Int_Tables_number     1

loop_
_atom_site_label
_atom_site_type_symbol
_atom_site_forcefield_label
_atom_site_Cartn_x
_atom_site_Cartn_y
_atom_site_Cartn_z
_atom_site_charge
P        P   P      11.22700000  23.11100000  1.72500000  0.00000000
O        O   O      11.12900000  21.40400000  1.70200000  0.00000000
O        O   O      11.47900000  23.64500000  3.32900000  0.00000000
O        O   O      9.76900000  23.77300000  1.12600000  0.00000000
C        C   C      11.56100000  25.07200000  3.34800000  0.00000000
H        H   H      10.64800000  25.48700000  2.97300000  0.00000000
H        H   H      11.71900000  25.40800000  4.35200000  0.00000000
H        H   H      12.37600000  25.39200000  2.73300000  0.00000000
C        C   C      9.55600000  23.32600000 -0.21600000  0.00000000
H        H   H      9.49600000  22.25800000 -0.23100000  0.00000000
H        H   H      8.64500000  23.74000000 -0.59000000  0.00000000
H        H   H      10.37200000  23.64500000 -0.83000000  0.00000000
O        O   O      12.53000000  23.62100000  0.74100000  0.00000000
C        C   C      13.74900000  23.06700000  1.24200000  0.00000000
C        C   C      14.19500000  21.82000000  0.78000000  0.00000000
C        C   C      14.50000000  23.76900000  2.19500000  0.00000000
C        C   C      15.39000000  21.27800000  1.27100000  0.00000000
H        H   H      13.62200000  21.28400000  0.05300000  0.00000000
C        C   C      15.69500000  23.22700000  2.68500000  0.00000000
H        H   H      14.15900000  24.72100000  2.54800000  0.00000000
C        C   C      16.14000000  21.98100000  2.22300000  0.00000000
H        H   H      15.73000000  20.32700000  0.91800000  0.00000000
H        H   H      16.26700000  23.76400000  3.41300000  0.00000000
N        N   N      17.39300000  21.41200000  2.73700000  0.00000000
O        O   O      18.05600000  22.03200000  3.57900000  0.00000000
O        O   O      17.78700000  20.31200000  2.33000000  0.00000000
