data_Movie_nu1000_modified_1.1.2_100.000000_0.000000_allcomponents

_cell_length_a  39.97000000
_cell_length_b  40.00000000
_cell_length_c  33.16000000
_cell_angle_alpha  90.00000000
_cell_angle_beta   90.00000000
_cell_angle_gamma  120.00000000


_symmetry_space_group_name_Hall ' P 1'
_symmetry_space_group_name_H-M  'P 1'
_symmetry_Int_Tables_number     1

loop_
_atom_site_label
_atom_site_type_symbol
_atom_site_forcefield_label
_atom_site_Cartn_x
_atom_site_Cartn_y
_atom_site_Cartn_z
_atom_site_charge
P        P   P      10.74200000  23.11900000  1.55600000  0.00000000
O        O   O      10.73900000  21.40900000  1.57500000  0.00000000
O        O   O      11.19100000  23.70500000  3.09900000  0.00000000
O        O   O      9.17900000  23.68900000  1.16300000  0.00000000
C        C   C      11.19400000  25.13400000  3.08300000  0.00000000
H        H   H      10.21600000  25.49000000  2.83700000  0.00000000
H        H   H      11.47500000  25.50200000  4.04900000  0.00000000
H        H   H      11.89400000  25.48100000  2.35200000  0.00000000
C        C   C      8.80300000  23.19800000 -0.12700000  0.00000000
H        H   H      8.80100000  22.12800000 -0.11600000  0.00000000
H        H   H      7.82500000  23.55500000 -0.37300000  0.00000000
H        H   H      9.50400000  23.54600000 -0.85800000  0.00000000
O        O   O      11.86100000  23.67400000  0.38800000  0.00000000
C        C   C      13.16900000  23.19800000  0.71700000  0.00000000
C        C   C      13.61300000  21.96600000  0.21600000  0.00000000
C        C   C      14.00700000  23.96200000  1.54100000  0.00000000
C        C   C      14.89500000  21.50000000  0.53900000  0.00000000
H        H   H      12.97400000  21.38200000 -0.41300000  0.00000000
C        C   C      15.28800000  23.49600000  1.86200000  0.00000000
H        H   H      13.66800000  24.90200000  1.92300000  0.00000000
C        C   C      15.73200000  22.26500000  1.36200000  0.00000000
H        H   H      15.23400000  20.56000000  0.15600000  0.00000000
H        H   H      15.92700000  24.08000000  2.49200000  0.00000000
N        N   N      17.07600000  21.77500000  1.70000000  0.00000000
O        O   O      17.81600000  22.45000000  2.42700000  0.00000000
O        O   O      17.46900000  20.68800000  1.25800000  0.00000000
