data_Movie_nu1000_modified_1.1.2_100.000000_0.000000_allcomponents

_cell_length_a  39.97000000
_cell_length_b  40.00000000
_cell_length_c  33.16000000
_cell_angle_alpha  90.00000000
_cell_angle_beta   90.00000000
_cell_angle_gamma  120.00000000


_symmetry_space_group_name_Hall ' P 1'
_symmetry_space_group_name_H-M  'P 1'
_symmetry_Int_Tables_number     1

loop_
_atom_site_label
_atom_site_type_symbol
_atom_site_forcefield_label
_atom_site_Cartn_x
_atom_site_Cartn_y
_atom_site_Cartn_z
_atom_site_charge
P        P   P      9.09300000  26.07200000  1.10300000  0.00000000
O        O   O      9.64600000  24.46700000  1.30900000  0.00000000
O        O   O      8.87800000  26.80100000  2.63500000  0.00000000
O        O   O      7.60400000  26.05900000  0.26300000  0.00000000
C        C   C      8.41500000  28.14300000  2.46300000  0.00000000
H        H   H      7.48400000  28.13400000  1.93700000  0.00000000
H        H   H      8.28000000  28.60000000  3.42100000  0.00000000
H        H   H      9.13700000  28.69900000  1.90100000  0.00000000
C        C   C      7.78400000  25.44900000 -1.01800000  0.00000000
H        H   H      8.13000000  24.44400000 -0.88900000  0.00000000
H        H   H      6.85300000  25.44100000 -1.54300000  0.00000000
H        H   H      8.50500000  26.00500000 -1.57900000  0.00000000
O        O   O      10.24600000  26.96100000  0.20500000  0.00000000
C        C   C      11.49100000  26.97200000  0.90800000  0.00000000
C        C   C      12.43600000  25.96300000  0.67600000  0.00000000
C        C   C      11.76800000  27.99200000  1.82900000  0.00000000
C        C   C      13.65700000  25.97400000  1.36500000  0.00000000
H        H   H      12.22500000  25.18400000 -0.02700000  0.00000000
C        C   C      12.98900000  28.00300000  2.51600000  0.00000000
H        H   H      11.04700000  28.76200000  2.00600000  0.00000000
C        C   C      13.93300000  26.99400000  2.28400000  0.00000000
H        H   H      14.37800000  25.20400000  1.18700000  0.00000000
H        H   H      13.19900000  28.78200000  3.21900000  0.00000000
N        N   N      15.21300000  27.00500000  3.00600000  0.00000000
O        O   O      15.45700000  27.90600000  3.82000000  0.00000000
O        O   O      16.04700000  26.11500000  2.80200000  0.00000000
