data_Movie_nu1000_modified_1.1.2_100.000000_0.000000_allcomponents

_cell_length_a  39.97000000
_cell_length_b  40.00000000
_cell_length_c  33.16000000
_cell_angle_alpha  90.00000000
_cell_angle_beta   90.00000000
_cell_angle_gamma  120.00000000


_symmetry_space_group_name_Hall ' P 1'
_symmetry_space_group_name_H-M  'P 1'
_symmetry_Int_Tables_number     1

loop_
_atom_site_label
_atom_site_type_symbol
_atom_site_forcefield_label
_atom_site_Cartn_x
_atom_site_Cartn_y
_atom_site_Cartn_z
_atom_site_charge
P        P   P      11.16100000  23.11100000  1.58800000  0.00000000
O        O   O      10.99700000  21.40900000  1.61500000  0.00000000
O        O   O      11.55400000  23.67000000  3.15500000  0.00000000
O        O   O      9.68800000  23.81700000  1.08400000  0.00000000
C        C   C      11.69100000  25.09300000  3.13300000  0.00000000
H        H   H      10.76900000  25.53500000  2.81700000  0.00000000
H        H   H      11.93700000  25.44400000  4.11400000  0.00000000
H        H   H      12.46900000  25.36600000  2.45100000  0.00000000
C        C   C      9.35800000  23.34900000 -0.22700000  0.00000000
H        H   H      9.25600000  22.28400000 -0.21000000  0.00000000
H        H   H      8.43700000  23.79100000 -0.54300000  0.00000000
H        H   H      10.13700000  23.62200000 -0.90800000  0.00000000
O        O   O      12.40400000  23.54700000  0.49800000  0.00000000
C        C   C      13.63600000  22.95600000  0.92000000  0.00000000
C        C   C      13.99800000  21.68300000  0.45700000  0.00000000
C        C   C      14.48200000  23.64900000  1.79700000  0.00000000
C        C   C      15.20600000  21.10400000  0.87200000  0.00000000
H        H   H      13.35200000  21.15300000 -0.21100000  0.00000000
C        C   C      15.69000000  23.07000000  2.20900000  0.00000000
H        H   H      14.20600000  24.62100000  2.15000000  0.00000000
C        C   C      16.05100000  21.79800000  1.74700000  0.00000000
H        H   H      15.48200000  20.13300000  0.51800000  0.00000000
H        H   H      16.33500000  23.60000000  2.87900000  0.00000000
N        N   N      17.31700000  21.19100000  2.18100000  0.00000000
O        O   O      18.06500000  21.80300000  2.95500000  0.00000000
O        O   O      17.63700000  20.06700000  1.77300000  0.00000000
