data_Movie_nu1000_modified_1.1.2_100.000000_0.000000_allcomponents

_cell_length_a  39.97000000
_cell_length_b  40.00000000
_cell_length_c  33.16000000
_cell_angle_alpha  90.00000000
_cell_angle_beta   90.00000000
_cell_angle_gamma  120.00000000


_symmetry_space_group_name_Hall ' P 1'
_symmetry_space_group_name_H-M  'P 1'
_symmetry_Int_Tables_number     1

loop_
_atom_site_label
_atom_site_type_symbol
_atom_site_forcefield_label
_atom_site_Cartn_x
_atom_site_Cartn_y
_atom_site_Cartn_z
_atom_site_charge
P        P   P      10.10200000  25.46100000  1.45100000  0.00000000
O        O   O      10.39100000  23.79600000  1.70900000  0.00000000
O        O   O      9.49200000  26.16300000  2.88600000  0.00000000
O        O   O      8.96200000  25.65500000  0.19300000  0.00000000
C        C   C      9.25100000  27.55500000  2.67100000  0.00000000
H        H   H      8.53800000  27.67600000  1.88300000  0.00000000
H        H   H      8.86900000  27.99500000  3.56900000  0.00000000
H        H   H      10.16700000  28.03800000  2.40000000  0.00000000
C        C   C      9.47100000  25.06800000 -1.00800000  0.00000000
H        H   H      9.65200000  24.02500000 -0.84700000  0.00000000
H        H   H      8.75800000  25.18900000 -1.79500000  0.00000000
H        H   H      10.38700000  25.55100000 -1.27900000  0.00000000
O        O   O      11.56600000  26.23300000  1.01700000  0.00000000
C        C   C      12.52000000  26.07100000  2.07000000  0.00000000
C        C   C      13.37800000  24.96200000  2.07400000  0.00000000
C        C   C      12.59800000  27.02000000  3.09800000  0.00000000
C        C   C      14.31300000  24.80400000  3.10600000  0.00000000
H        H   H      13.31900000  24.23700000  1.28900000  0.00000000
C        C   C      13.53300000  26.86200000  4.12900000  0.00000000
H        H   H      11.94200000  27.86600000  3.09500000  0.00000000
C        C   C      14.39100000  25.75400000  4.13300000  0.00000000
H        H   H      14.96900000  23.95800000  3.10900000  0.00000000
H        H   H      13.59200000  27.58800000  4.91400000  0.00000000
N        N   N      15.37100000  25.58800000  5.21500000  0.00000000
O        O   O      15.44000000  26.42700000  6.12300000  0.00000000
O        O   O      16.12900000  24.61000000  5.21900000  0.00000000
