data_Movie_nu1000_modified_1.1.2_100.000000_0.000000_allcomponents

_cell_length_a  39.97000000
_cell_length_b  40.00000000
_cell_length_c  33.16000000
_cell_angle_alpha  90.00000000
_cell_angle_beta   90.00000000
_cell_angle_gamma  120.00000000


_symmetry_space_group_name_Hall ' P 1'
_symmetry_space_group_name_H-M  'P 1'
_symmetry_Int_Tables_number     1

loop_
_atom_site_label
_atom_site_type_symbol
_atom_site_forcefield_label
_atom_site_Cartn_x
_atom_site_Cartn_y
_atom_site_Cartn_z
_atom_site_charge
P        P   P      11.19500000  23.11100000  1.68000000  0.00000000
O        O   O      11.04800000  21.40800000  1.63400000  0.00000000
O        O   O      11.61200000  23.60400000  3.26300000  0.00000000
O        O   O      9.70600000  23.82400000  1.23500000  0.00000000
C        C   C      11.73500000  25.02700000  3.30200000  0.00000000
H        H   H      10.80300000  25.47300000  3.02300000  0.00000000
H        H   H      11.99600000  25.33700000  4.29300000  0.00000000
H        H   H      12.49700000  25.33900000  2.61900000  0.00000000
C        C   C      9.35600000  23.41100000 -0.08900000  0.00000000
H        H   H      9.26500000  22.34600000 -0.11900000  0.00000000
H        H   H      8.42500000  23.85700000 -0.36800000  0.00000000
H        H   H      10.11900000  23.72200000 -0.77200000  0.00000000
O        O   O      12.41400000  23.60800000  0.58700000  0.00000000
C        C   C      13.65900000  23.01200000  0.96000000  0.00000000
C        C   C      14.02400000  21.76500000  0.43400000  0.00000000
C        C   C      14.51500000  23.67400000  1.85100000  0.00000000
C        C   C      15.24500000  21.18100000  0.80000000  0.00000000
H        H   H      13.37100000  21.25900000 -0.24600000  0.00000000
C        C   C      15.73500000  23.09000000  2.21500000  0.00000000
H        H   H      14.23600000  24.62600000  2.25300000  0.00000000
C        C   C      16.10000000  21.84400000  1.69000000  0.00000000
H        H   H      15.52400000  20.22900000  0.39800000  0.00000000
H        H   H      16.38800000  23.59600000  2.89600000  0.00000000
N        N   N      17.38000000  21.23100000  2.07200000  0.00000000
O        O   O      18.13600000  21.81600000  2.85900000  0.00000000
O        O   O      17.70300000  20.13000000  1.60800000  0.00000000
