data_Movie_nu1000_modified_1.1.2_100.000000_0.000000_allcomponents

_cell_length_a  39.97000000
_cell_length_b  40.00000000
_cell_length_c  33.16000000
_cell_angle_alpha  90.00000000
_cell_angle_beta   90.00000000
_cell_angle_gamma  120.00000000


_symmetry_space_group_name_Hall ' P 1'
_symmetry_space_group_name_H-M  'P 1'
_symmetry_Int_Tables_number     1

loop_
_atom_site_label
_atom_site_type_symbol
_atom_site_forcefield_label
_atom_site_Cartn_x
_atom_site_Cartn_y
_atom_site_Cartn_z
_atom_site_charge
P        P   P      10.39900000  23.25100000  1.55600000  0.00000000
O        O   O      10.76200000  21.58700000  1.70100000  0.00000000
O        O   O      10.33500000  23.95800000  3.11200000  0.00000000
O        O   O      8.88700000  23.44000000  0.78200000  0.00000000
C        C   C      10.03200000  25.35000000  2.99100000  0.00000000
H        H   H      9.08600000  25.46800000  2.50600000  0.00000000
H        H   H      9.99200000  25.79300000  3.96500000  0.00000000
H        H   H      10.79200000  25.83100000  2.41200000  0.00000000
C        C   C      8.94000000  22.84900000 -0.52000000  0.00000000
H        H   H      9.16700000  21.80700000 -0.42900000  0.00000000
H        H   H      7.99400000  22.96700000 -1.00400000  0.00000000
H        H   H      9.70000000  23.33100000 -1.09800000  0.00000000
O        O   O      11.61400000  24.02100000  0.63000000  0.00000000
C        C   C      12.87800000  23.86300000  1.27800000  0.00000000
C        C   C      13.68400000  22.75400000  0.98200000  0.00000000
C        C   C      13.31400000  24.81600000  2.20900000  0.00000000
C        C   C      14.92400000  22.60000000  1.61800000  0.00000000
H        H   H      13.35200000  22.02600000  0.27200000  0.00000000
C        C   C      14.55300000  24.66200000  2.84300000  0.00000000
H        H   H      12.69800000  25.66200000  2.43500000  0.00000000
C        C   C      15.35800000  23.55400000  2.54800000  0.00000000
H        H   H      15.53900000  21.75400000  1.39200000  0.00000000
H        H   H      14.88500000  25.39000000  3.55400000  0.00000000
N        N   N      16.65800000  23.39100000  3.21400000  0.00000000
O        O   O      17.04300000  24.23300000  4.03600000  0.00000000
O        O   O      17.37000000  22.41300000  2.95300000  0.00000000
