data_Movie_nu1000_modified_1.1.2_100.000000_0.000000_allcomponents

_cell_length_a  39.97000000
_cell_length_b  40.00000000
_cell_length_c  33.16000000
_cell_angle_alpha  90.00000000
_cell_angle_beta   90.00000000
_cell_angle_gamma  120.00000000


_symmetry_space_group_name_Hall ' P 1'
_symmetry_space_group_name_H-M  'P 1'
_symmetry_Int_Tables_number     1

loop_
_atom_site_label
_atom_site_type_symbol
_atom_site_forcefield_label
_atom_site_Cartn_x
_atom_site_Cartn_y
_atom_site_Cartn_z
_atom_site_charge
P        P   P      10.10200000  25.05600000  1.25500000  0.00000000
O        O   O      10.39400000  23.39100000  1.51500000  0.00000000
O        O   O      9.51400000  25.76300000  2.69700000  0.00000000
O        O   O      8.94300000  25.24500000  0.01300000  0.00000000
C        C   C      9.27000000  27.15400000  2.48000000  0.00000000
H        H   H      8.54400000  27.27200000  1.70200000  0.00000000
H        H   H      8.90100000  27.59700000  3.38200000  0.00000000
H        H   H      10.18100000  27.63600000  2.19300000  0.00000000
C        C   C      9.43400000  24.65300000 -1.19300000  0.00000000
H        H   H      9.61700000  23.61200000 -1.03100000  0.00000000
H        H   H      8.70900000  24.77200000 -1.97000000  0.00000000
H        H   H      10.34600000  25.13500000 -1.47900000  0.00000000
O        O   O      11.55900000  25.82600000  0.79600000  0.00000000
C        C   C      12.52900000  25.66800000  1.83500000  0.00000000
C        C   C      13.38700000  24.55900000  1.83000000  0.00000000
C        C   C      12.62200000  26.62100000  2.85800000  0.00000000
C        C   C      14.33800000  24.40500000  2.84900000  0.00000000
H        H   H      13.31600000  23.83100000  1.04900000  0.00000000
C        C   C      13.57300000  26.46600000  3.87500000  0.00000000
H        H   H      11.96700000  27.46700000  2.86200000  0.00000000
C        C   C      14.43000000  25.35800000  3.87100000  0.00000000
H        H   H      14.99300000  23.55900000  2.84500000  0.00000000
H        H   H      13.64300000  27.19400000  4.65700000  0.00000000
N        N   N      15.42700000  25.19600000  4.93900000  0.00000000
O        O   O      15.51000000  26.03800000  5.84200000  0.00000000
O        O   O      16.18500000  24.21800000  4.93500000  0.00000000
