data_Movie_nu1000_modified_1.1.2_100.000000_0.000000_allcomponents

_cell_length_a  39.97000000
_cell_length_b  40.00000000
_cell_length_c  33.16000000
_cell_angle_alpha  90.00000000
_cell_angle_beta   90.00000000
_cell_angle_gamma  120.00000000


_symmetry_space_group_name_Hall ' P 1'
_symmetry_space_group_name_H-M  'P 1'
_symmetry_Int_Tables_number     1

loop_
_atom_site_label
_atom_site_type_symbol
_atom_site_forcefield_label
_atom_site_Cartn_x
_atom_site_Cartn_y
_atom_site_Cartn_z
_atom_site_charge
P        P   P      9.09300000  26.02000000  1.45100000  0.00000000
O        O   O      9.54400000  24.40400000  1.78300000  0.00000000
O        O   O      8.18700000  26.63800000  2.76200000  0.00000000
O        O   O      8.14500000  26.06800000  0.03000000  0.00000000
C        C   C      7.81000000  27.98900000  2.48600000  0.00000000
H        H   H      7.21600000  28.01900000  1.59600000  0.00000000
H        H   H      7.24200000  28.37700000  3.30600000  0.00000000
H        H   H      8.68900000  28.58400000  2.34800000  0.00000000
C        C   C      8.90200000  25.55000000 -1.06700000  0.00000000
H        H   H      9.18500000  24.53900000 -0.86000000  0.00000000
H        H   H      8.30900000  25.58000000 -1.95600000  0.00000000
H        H   H      9.78100000  26.14400000 -1.20500000  0.00000000
O        O   O      10.49800000  26.97000000  1.23000000  0.00000000
C        C   C      11.29100000  26.93000000  2.41900000  0.00000000
C        C   C      12.27100000  25.93900000  2.57600000  0.00000000
C        C   C      11.09100000  27.88200000  3.42900000  0.00000000
C        C   C      13.04800000  25.90100000  3.74200000  0.00000000
H        H   H      12.42400000  25.21200000  1.80600000  0.00000000
C        C   C      11.86900000  27.84400000  4.59300000  0.00000000
H        H   H      10.34300000  28.63800000  3.30900000  0.00000000
C        C   C      12.84700000  26.85300000  4.75000000  0.00000000
H        H   H      13.79600000  25.14500000  3.86100000  0.00000000
H        H   H      11.71500000  28.57000000  5.36400000  0.00000000
N        N   N      13.66300000  26.81200000  5.97200000  0.00000000
O        O   O      13.48500000  27.65300000  6.86300000  0.00000000
O        O   O      14.52700000  25.93800000  6.11100000  0.00000000
