data_Movie_nu1000_modified_1.1.2_100.000000_0.000000_allcomponents

_cell_length_a  39.97000000
_cell_length_b  40.00000000
_cell_length_c  33.16000000
_cell_angle_alpha  90.00000000
_cell_angle_beta   90.00000000
_cell_angle_gamma  120.00000000


_symmetry_space_group_name_Hall ' P 1'
_symmetry_space_group_name_H-M  'P 1'
_symmetry_Int_Tables_number     1

loop_
_atom_site_label
_atom_site_type_symbol
_atom_site_forcefield_label
_atom_site_Cartn_x
_atom_site_Cartn_y
_atom_site_Cartn_z
_atom_site_charge
P        P   P      11.03500000  23.11900000  1.63600000  0.00000000
O        O   O      10.93100000  21.41200000  1.65500000  0.00000000
O        O   O      11.31800000  23.69100000  3.22200000  0.00000000
O        O   O      9.57000000  23.77400000  1.04700000  0.00000000
C        C   C      11.40500000  25.11700000  3.20600000  0.00000000
H        H   H      10.48800000  25.52700000  2.83700000  0.00000000
H        H   H      11.58200000  25.47600000  4.19900000  0.00000000
H        H   H      12.21100000  25.41800000  2.56900000  0.00000000
C        C   C      9.33200000  23.29500000 -0.28000000  0.00000000
H        H   H      9.26700000  22.22700000 -0.26800000  0.00000000
H        H   H      8.41600000  23.70500000 -0.64900000  0.00000000
H        H   H      10.13900000  23.59600000 -0.91600000  0.00000000
O        O   O      12.32300000  23.60000000  0.61800000  0.00000000
C        C   C      13.54900000  23.05300000  1.11100000  0.00000000
C        C   C      13.98100000  21.79400000  0.67100000  0.00000000
C        C   C      14.31800000  23.77400000  2.03300000  0.00000000
C        C   C      15.18300000  21.25800000  1.15400000  0.00000000
H        H   H      13.39400000  21.24200000 -0.03300000  0.00000000
C        C   C      15.52000000  23.23900000  2.51500000  0.00000000
H        H   H      13.98800000  24.73500000  2.36900000  0.00000000
C        C   C      15.95200000  21.98000000  2.07600000  0.00000000
H        H   H      15.51300000  20.29700000  0.81800000  0.00000000
H        H   H      16.10700000  23.79000000  3.22000000  0.00000000
N        N   N      17.21200000  21.41800000  2.58200000  0.00000000
O        O   O      17.89200000  22.05500000  3.39700000  0.00000000
O        O   O      17.59400000  20.30600000  2.19400000  0.00000000
