data_Movie_nu1000_modified_1.1.2_100.000000_0.000000_allcomponents

_cell_length_a  39.97000000
_cell_length_b  40.00000000
_cell_length_c  33.16000000
_cell_angle_alpha  90.00000000
_cell_angle_beta   90.00000000
_cell_angle_gamma  120.00000000


_symmetry_space_group_name_Hall ' P 1'
_symmetry_space_group_name_H-M  'P 1'
_symmetry_Int_Tables_number     1

loop_
_atom_site_label
_atom_site_type_symbol
_atom_site_forcefield_label
_atom_site_Cartn_x
_atom_site_Cartn_y
_atom_site_Cartn_z
_atom_site_charge
P        P   P      10.99000000  23.11900000  1.63200000  0.00000000
O        O   O      10.90000000  21.41200000  1.65300000  0.00000000
O        O   O      11.44300000  23.68500000  3.18000000  0.00000000
O        O   O      9.46400000  23.76600000  1.21200000  0.00000000
C        C   C      11.51800000  25.11200000  3.16300000  0.00000000
H        H   H      10.56300000  25.51700000  2.90000000  0.00000000
H        H   H      11.80200000  25.46700000  4.13200000  0.00000000
H        H   H      12.24700000  25.42200000  2.44300000  0.00000000
C        C   C      9.08500000  23.29200000 -0.08300000  0.00000000
H        H   H      9.02800000  22.22400000 -0.07000000  0.00000000
H        H   H      8.13000000  23.69700000 -0.34500000  0.00000000
H        H   H      9.81400000  23.60200000 -0.80200000  0.00000000
O        O   O      12.15400000  23.61400000  0.48000000  0.00000000
C        C   C      13.43100000  23.07400000  0.83200000  0.00000000
C        C   C      13.82000000  21.82000000  0.33900000  0.00000000
C        C   C      14.29300000  23.79600000  1.66800000  0.00000000
C        C   C      15.07200000  21.29100000  0.68400000  0.00000000
H        H   H      13.16200000  21.26800000 -0.29800000  0.00000000
C        C   C      15.54400000  23.26700000  2.01100000  0.00000000
H        H   H      13.99500000  24.75300000  2.04400000  0.00000000
C        C   C      15.93300000  22.01400000  1.51900000  0.00000000
H        H   H      15.36900000  20.33400000  0.30800000  0.00000000
H        H   H      16.20100000  23.81900000  2.65000000  0.00000000
N        N   N      17.24500000  21.45800000  1.88000000  0.00000000
O        O   O      18.00600000  22.09600000  2.61800000  0.00000000
O        O   O      17.58900000  20.35200000  1.44500000  0.00000000
