data_Movie_nu1000_modified_1.1.2_100.000000_0.000000_allcomponents

_cell_length_a  39.97000000
_cell_length_b  40.00000000
_cell_length_c  33.16000000
_cell_angle_alpha  90.00000000
_cell_angle_beta   90.00000000
_cell_angle_gamma  120.00000000


_symmetry_space_group_name_Hall ' P 1'
_symmetry_space_group_name_H-M  'P 1'
_symmetry_Int_Tables_number     1

loop_
_atom_site_label
_atom_site_type_symbol
_atom_site_forcefield_label
_atom_site_Cartn_x
_atom_site_Cartn_y
_atom_site_Cartn_z
_atom_site_charge
P        P   P      7.93200000  16.59200000  25.47200000  0.00000000
O        O   O      8.99700000  15.25700000  25.54400000  0.00000000
O        O   O      8.24600000  17.64300000  26.78400000  0.00000000
O        O   O      6.31700000  16.03900000  25.55900000  0.00000000
C        C   C      7.35500000  18.75900000  26.72400000  0.00000000
H        H   H      6.34400000  18.41300000  26.77800000  0.00000000
H        H   H      7.55100000  19.41800000  27.54500000  0.00000000
H        H   H      7.50300000  19.28400000  25.80300000  0.00000000
C        C   C      6.05300000  15.15900000  24.46200000  0.00000000
H        H   H      6.72000000  14.32400000  24.50600000  0.00000000
H        H   H      5.04300000  14.81300000  24.51600000  0.00000000
H        H   H      6.20200000  15.68500000  23.54100000  0.00000000
O        O   O      8.16800000  17.43100000  24.00000000  0.00000000
C        C   C      9.51800000  17.89400000  23.92800000  0.00000000
C        C   C      10.50800000  17.08400000  23.35200000  0.00000000
C        C   C      9.85500000  19.15800000  24.43100000  0.00000000
C        C   C      11.83200000  17.53800000  23.28100000  0.00000000
H        H   H      10.25200000  16.11800000  22.96900000  0.00000000
C        C   C      11.17800000  19.61300000  24.35800000  0.00000000
H        H   H      9.10000000  19.77700000  24.87000000  0.00000000
C        C   C      12.16700000  18.80200000  23.78400000  0.00000000
H        H   H      12.58700000  16.92000000  22.84300000  0.00000000
H        H   H      11.43400000  20.57800000  24.74300000  0.00000000
N        N   N      13.55500000  19.27800000  23.70900000  0.00000000
O        O   O      13.85200000  20.39500000  24.15400000  0.00000000
O        O   O      14.42800000  18.56300000  23.20200000  0.00000000
