data_Movie_nu1000_modified_1.1.2_100.000000_0.000000_allcomponents

_cell_length_a  39.97000000
_cell_length_b  40.00000000
_cell_length_c  33.16000000
_cell_angle_alpha  90.00000000
_cell_angle_beta   90.00000000
_cell_angle_gamma  120.00000000


_symmetry_space_group_name_Hall ' P 1'
_symmetry_space_group_name_H-M  'P 1'
_symmetry_Int_Tables_number     1

loop_
_atom_site_label
_atom_site_type_symbol
_atom_site_forcefield_label
_atom_site_Cartn_x
_atom_site_Cartn_y
_atom_site_Cartn_z
_atom_site_charge
P        P   P      11.03500000  23.11900000  1.63600000  0.00000000
O        O   O      10.93500000  21.41200000  1.66900000  0.00000000
O        O   O      11.52900000  23.69100000  3.16900000  0.00000000
O        O   O      9.50400000  23.77400000  1.24900000  0.00000000
C        C   C      11.61300000  25.11700000  3.14200000  0.00000000
H        H   H      10.65500000  25.52700000  2.90000000  0.00000000
H        H   H      11.92200000  25.47600000  4.10200000  0.00000000
H        H   H      12.32600000  25.41800000  2.40300000  0.00000000
C        C   C      9.09000000  23.29500000 -0.03400000  0.00000000
H        H   H      9.02700000  22.22700000 -0.01300000  0.00000000
H        H   H      8.13200000  23.70500000 -0.27500000  0.00000000
H        H   H      9.80400000  23.59600000 -0.77200000  0.00000000
O        O   O      12.17500000  23.60000000  0.45400000  0.00000000
C        C   C      13.45500000  23.05300000  0.77700000  0.00000000
C        C   C      13.82500000  21.79400000  0.28300000  0.00000000
C        C   C      14.34200000  23.77400000  1.58800000  0.00000000
C        C   C      15.08100000  21.25800000  0.60000000  0.00000000
H        H   H      13.14800000  21.24200000 -0.33600000  0.00000000
C        C   C      15.59800000  23.23900000  1.90400000  0.00000000
H        H   H      14.06000000  24.73500000  1.96500000  0.00000000
C        C   C      15.96600000  21.98000000  1.41000000  0.00000000
H        H   H      15.36300000  20.29700000  0.22300000  0.00000000
H        H   H      16.27400000  23.79000000  2.52300000  0.00000000
N        N   N      17.28300000  21.41800000  1.74200000  0.00000000
O        O   O      18.06600000  22.05500000  2.45800000  0.00000000
O        O   O      17.61000000  20.30600000  1.30600000  0.00000000
