data_Movie_nu1000_modified_1.1.2_100.000000_0.000000_allcomponents

_cell_length_a  39.97000000
_cell_length_b  40.00000000
_cell_length_c  33.16000000
_cell_angle_alpha  90.00000000
_cell_angle_beta   90.00000000
_cell_angle_gamma  120.00000000


_symmetry_space_group_name_Hall ' P 1'
_symmetry_space_group_name_H-M  'P 1'
_symmetry_Int_Tables_number     1

loop_
_atom_site_label
_atom_site_type_symbol
_atom_site_forcefield_label
_atom_site_Cartn_x
_atom_site_Cartn_y
_atom_site_Cartn_z
_atom_site_charge
P        P   P      11.16200000  23.11900000  1.58800000  0.00000000
O        O   O      10.99300000  21.41800000  1.58700000  0.00000000
O        O   O      11.48100000  23.65900000  3.17900000  0.00000000
O        O   O      9.71700000  23.83700000  1.02200000  0.00000000
C        C   C      11.62300000  25.08100000  3.18000000  0.00000000
H        H   H      10.71900000  25.53000000  2.82600000  0.00000000
H        H   H      11.82300000  25.42000000  4.17600000  0.00000000
H        H   H      12.43400000  25.35900000  2.54000000  0.00000000
C        C   C      9.44900000  23.38500000 -0.30800000  0.00000000
H        H   H      9.34400000  22.32000000 -0.30900000  0.00000000
H        H   H      8.54600000  23.83400000 -0.66200000  0.00000000
H        H   H      10.26100000  23.66300000 -0.94800000  0.00000000
O        O   O      12.45800000  23.56400000  0.56400000  0.00000000
C        C   C      13.66600000  22.96400000  1.03800000  0.00000000
C        C   C      14.04700000  21.69500000  0.57800000  0.00000000
C        C   C      14.47100000  23.64400000  1.96200000  0.00000000
C        C   C      15.23100000  21.10800000  1.04200000  0.00000000
H        H   H      13.43200000  21.17600000 -0.12800000  0.00000000
C        C   C      15.65600000  23.05600000  2.42500000  0.00000000
H        H   H      14.18100000  24.61200000  2.31300000  0.00000000
C        C   C      16.03600000  21.78900000  1.96600000  0.00000000
H        H   H      15.52100000  20.14000000  0.69100000  0.00000000
H        H   H      16.27000000  23.57600000  3.13100000  0.00000000
N        N   N      17.27800000  21.17200000  2.45200000  0.00000000
O        O   O      17.98900000  21.77200000  3.26900000  0.00000000
O        O   O      17.61400000  20.05200000  2.04600000  0.00000000
