data_Movie_nu1000_modified_1.1.2_100.000000_0.000000_allcomponents

_cell_length_a  39.97000000
_cell_length_b  40.00000000
_cell_length_c  33.16000000
_cell_angle_alpha  90.00000000
_cell_angle_beta   90.00000000
_cell_angle_gamma  120.00000000


_symmetry_space_group_name_Hall ' P 1'
_symmetry_space_group_name_H-M  'P 1'
_symmetry_Int_Tables_number     1

loop_
_atom_site_label
_atom_site_type_symbol
_atom_site_forcefield_label
_atom_site_Cartn_x
_atom_site_Cartn_y
_atom_site_Cartn_z
_atom_site_charge
P        P   P      11.03500000  23.11900000  1.63600000  0.00000000
O        O   O      10.93100000  21.41200000  1.65700000  0.00000000
O        O   O      11.33900000  23.69100000  3.21800000  0.00000000
O        O   O      9.56200000  23.77400000  1.06600000  0.00000000
C        C   C      11.42600000  25.11700000  3.20100000  0.00000000
H        H   H      10.50400000  25.52700000  2.84400000  0.00000000
H        H   H      11.61600000  25.47600000  4.19100000  0.00000000
H        H   H      12.22400000  25.41800000  2.55400000  0.00000000
C        C   C      9.30700000  23.29500000 -0.25700000  0.00000000
H        H   H      9.24200000  22.22700000 -0.24500000  0.00000000
H        H   H      8.38600000  23.70500000 -0.61400000  0.00000000
H        H   H      10.10500000  23.59600000 -0.90400000  0.00000000
O        O   O      12.31000000  23.60000000  0.60100000  0.00000000
C        C   C      13.54200000  23.05300000  1.07700000  0.00000000
C        C   C      13.96800000  21.79400000  0.63200000  0.00000000
C        C   C      14.32300000  23.77400000  1.99000000  0.00000000
C        C   C      15.17600000  21.25800000  1.09900000  0.00000000
H        H   H      13.37100000  21.24200000 -0.06500000  0.00000000
C        C   C      15.53100000  23.23900000  2.45500000  0.00000000
H        H   H      13.99800000  24.73500000  2.33000000  0.00000000
C        C   C      15.95700000  21.98000000  2.01100000  0.00000000
H        H   H      15.50200000  20.29700000  0.75900000  0.00000000
H        H   H      16.12800000  23.79000000  3.15200000  0.00000000
N        N   N      17.22400000  21.41800000  2.50000000  0.00000000
O        O   O      17.91500000  22.05500000  3.30600000  0.00000000
O        O   O      17.60100000  20.30600000  2.10700000  0.00000000
