data_Movie_nu1000_modified_1.1.2_100.000000_0.000000_allcomponents

_cell_length_a  39.97000000
_cell_length_b  40.00000000
_cell_length_c  33.16000000
_cell_angle_alpha  90.00000000
_cell_angle_beta   90.00000000
_cell_angle_gamma  120.00000000


_symmetry_space_group_name_Hall ' P 1'
_symmetry_space_group_name_H-M  'P 1'
_symmetry_Int_Tables_number     1

loop_
_atom_site_label
_atom_site_type_symbol
_atom_site_forcefield_label
_atom_site_Cartn_x
_atom_site_Cartn_y
_atom_site_Cartn_z
_atom_site_charge
P        P   P      10.10200000  25.46100000  1.19400000  0.00000000
O        O   O      10.39400000  23.79600000  1.44800000  0.00000000
O        O   O      9.51400000  26.16300000  2.63800000  0.00000000
O        O   O      8.94300000  25.65500000 -0.04700000  0.00000000
C        C   C      9.27000000  27.55500000  2.42700000  0.00000000
H        H   H      8.54400000  27.67600000  1.64900000  0.00000000
H        H   H      8.90100000  27.99500000  3.33000000  0.00000000
H        H   H      10.18100000  28.03800000  2.14100000  0.00000000
C        C   C      9.43400000  25.06800000 -1.25600000  0.00000000
H        H   H      9.61700000  24.02500000 -1.09700000  0.00000000
H        H   H      8.70900000  25.18900000 -2.03200000  0.00000000
H        H   H      10.34600000  25.55100000 -1.54000000  0.00000000
O        O   O      11.55900000  26.23300000  0.73700000  0.00000000
C        C   C      12.52900000  26.07100000  1.77600000  0.00000000
C        C   C      13.38700000  24.96200000  1.76700000  0.00000000
C        C   C      12.62200000  27.02000000  2.80300000  0.00000000
C        C   C      14.33800000  24.80400000  2.78500000  0.00000000
H        H   H      13.31600000  24.23700000  0.98300000  0.00000000
C        C   C      13.57300000  26.86200000  3.81900000  0.00000000
H        H   H      11.96700000  27.86600000  2.80900000  0.00000000
C        C   C      14.43000000  25.75400000  3.81100000  0.00000000
H        H   H      14.99300000  23.95800000  2.77800000  0.00000000
H        H   H      13.64300000  27.58800000  4.60300000  0.00000000
N        N   N      15.42700000  25.58800000  4.87800000  0.00000000
O        O   O      15.51000000  26.42700000  5.78500000  0.00000000
O        O   O      16.18500000  24.61000000  4.87000000  0.00000000
