data_Movie_nu1000_modified_1.1.2_100.000000_0.000000_allcomponents

_cell_length_a  39.97000000
_cell_length_b  40.00000000
_cell_length_c  33.16000000
_cell_angle_alpha  90.00000000
_cell_angle_beta   90.00000000
_cell_angle_gamma  120.00000000


_symmetry_space_group_name_Hall ' P 1'
_symmetry_space_group_name_H-M  'P 1'
_symmetry_Int_Tables_number     1

loop_
_atom_site_label
_atom_site_type_symbol
_atom_site_forcefield_label
_atom_site_Cartn_x
_atom_site_Cartn_y
_atom_site_Cartn_z
_atom_site_charge
P        P   P      10.99000000  23.11900000  1.63600000  0.00000000
O        O   O      10.88600000  21.41200000  1.65600000  0.00000000
O        O   O      11.28000000  23.69100000  3.22100000  0.00000000
O        O   O      9.52200000  23.77400000  1.05300000  0.00000000
C        C   C      11.36800000  25.11700000  3.20400000  0.00000000
H        H   H      10.44900000  25.52700000  2.83900000  0.00000000
H        H   H      11.54900000  25.47600000  4.19600000  0.00000000
H        H   H      12.17000000  25.41800000  2.56400000  0.00000000
C        C   C      9.27800000  23.29500000 -0.27300000  0.00000000
H        H   H      9.21300000  22.22700000 -0.26000000  0.00000000
H        H   H      8.36000000  23.70500000 -0.63700000  0.00000000
H        H   H      10.08200000  23.59600000 -0.91200000  0.00000000
O        O   O      12.27400000  23.60000000  0.61200000  0.00000000
C        C   C      13.50100000  23.05300000  1.09900000  0.00000000
C        C   C      13.93200000  21.79400000  0.65700000  0.00000000
C        C   C      14.27500000  23.77400000  2.01800000  0.00000000
C        C   C      15.13600000  21.25800000  1.13500000  0.00000000
H        H   H      13.34100000  21.24200000 -0.04400000  0.00000000
C        C   C      15.47900000  23.23900000  2.49500000  0.00000000
H        H   H      13.94600000  24.73500000  2.35600000  0.00000000
C        C   C      15.90900000  21.98000000  2.05400000  0.00000000
H        H   H      15.46400000  20.29700000  0.79800000  0.00000000
H        H   H      16.06900000  23.79000000  3.19700000  0.00000000
N        N   N      17.17100000  21.41800000  2.55400000  0.00000000
O        O   O      17.85500000  22.05500000  3.36600000  0.00000000
O        O   O      17.55200000  20.30600000  2.16400000  0.00000000
