data_Movie_nu1000_modified_1.1.2_100.000000_0.000000_allcomponents

_cell_length_a  39.97000000
_cell_length_b  40.00000000
_cell_length_c  33.16000000
_cell_angle_alpha  90.00000000
_cell_angle_beta   90.00000000
_cell_angle_gamma  120.00000000


_symmetry_space_group_name_Hall ' P 1'
_symmetry_space_group_name_H-M  'P 1'
_symmetry_Int_Tables_number     1

loop_
_atom_site_label
_atom_site_type_symbol
_atom_site_forcefield_label
_atom_site_Cartn_x
_atom_site_Cartn_y
_atom_site_Cartn_z
_atom_site_charge
P        P   P      11.23300000  23.10800000  1.62500000  0.00000000
O        O   O      11.10800000  21.40300000  1.63000000  0.00000000
O        O   O      11.65400000  23.65300000  3.19000000  0.00000000
O        O   O      9.73300000  23.78900000  1.16900000  0.00000000
C        C   C      11.75900000  25.07800000  3.18700000  0.00000000
H        H   H      10.82000000  25.50500000  2.90100000  0.00000000
H        H   H      12.02300000  25.42000000  4.16600000  0.00000000
H        H   H      12.51300000  25.37900000  2.48900000  0.00000000
C        C   C      9.37900000  23.33400000 -0.13900000  0.00000000
H        H   H      9.30100000  22.26600000 -0.13700000  0.00000000
H        H   H      8.44100000  23.76000000 -0.42400000  0.00000000
H        H   H      10.13400000  23.63400000 -0.83600000  0.00000000
O        O   O      12.43800000  23.58800000  0.51000000  0.00000000
C        C   C      13.69300000  23.01900000  0.89200000  0.00000000
C        C   C      14.07100000  21.76100000  0.40000000  0.00000000
C        C   C      14.54600000  23.71700000  1.75700000  0.00000000
C        C   C      15.30100000  21.20300000  0.77400000  0.00000000
H        H   H      13.41900000  21.22700000 -0.26000000  0.00000000
C        C   C      15.77600000  23.15900000  2.13000000  0.00000000
H        H   H      14.25800000  24.67700000  2.13200000  0.00000000
C        C   C      16.15300000  21.90300000  1.63900000  0.00000000
H        H   H      15.58900000  20.24300000  0.39900000  0.00000000
H        H   H      16.42700000  23.69300000  2.79100000  0.00000000
N        N   N      17.44300000  21.31700000  2.03000000  0.00000000
O        O   O      18.19700000  21.93400000  2.79500000  0.00000000
O        O   O      17.77700000  20.20700000  1.59700000  0.00000000
