data_Movie_nu1000_modified_1.1.2_100.000000_0.000000_allcomponents

_cell_length_a  39.97000000
_cell_length_b  40.00000000
_cell_length_c  33.16000000
_cell_angle_alpha  90.00000000
_cell_angle_beta   90.00000000
_cell_angle_gamma  120.00000000


_symmetry_space_group_name_Hall ' P 1'
_symmetry_space_group_name_H-M  'P 1'
_symmetry_Int_Tables_number     1

loop_
_atom_site_label
_atom_site_type_symbol
_atom_site_forcefield_label
_atom_site_Cartn_x
_atom_site_Cartn_y
_atom_site_Cartn_z
_atom_site_charge
P        P   P      11.23300000  23.10800000  1.65900000  0.00000000
O        O   O      11.02800000  21.41100000  1.64900000  0.00000000
O        O   O      11.55800000  23.63300000  3.25400000  0.00000000
O        O   O      9.80600000  23.85900000  1.09200000  0.00000000
C        C   C      11.72900000  25.05200000  3.26300000  0.00000000
H        H   H      10.83600000  25.52100000  2.90800000  0.00000000
H        H   H      11.93300000  25.38100000  4.26100000  0.00000000
H        H   H      12.54800000  25.31600000  2.62700000  0.00000000
C        C   C      9.53300000  23.42000000 -0.24200000  0.00000000
H        H   H      9.40500000  22.35800000 -0.24900000  0.00000000
H        H   H      8.64000000  23.89000000 -0.59600000  0.00000000
H        H   H      10.35200000  23.68400000 -0.87700000  0.00000000
O        O   O      12.54100000  23.53100000  0.64200000  0.00000000
C        C   C      13.73500000  22.90300000  1.11700000  0.00000000
C        C   C      14.09000000  21.62900000  0.65100000  0.00000000
C        C   C      14.55100000  23.56100000  2.04700000  0.00000000
C        C   C      15.26100000  21.01500000  1.11700000  0.00000000
H        H   H      13.46700000  21.12600000 -0.05900000  0.00000000
C        C   C      15.72200000  22.94600000  2.51100000  0.00000000
H        H   H      14.28000000  24.53300000  2.40300000  0.00000000
C        C   C      16.07600000  21.67300000  2.04700000  0.00000000
H        H   H      15.53200000  20.04200000  0.76100000  0.00000000
H        H   H      16.34400000  23.44900000  3.22200000  0.00000000
N        N   N      17.30300000  21.02800000  2.53400000  0.00000000
O        O   O      18.02400000  21.60900000  3.35600000  0.00000000
O        O   O      17.61700000  19.90300000  2.12400000  0.00000000
