data_Movie_nu1000_modified_1.1.2_100.000000_0.000000_allcomponents

_cell_length_a  39.97000000
_cell_length_b  40.00000000
_cell_length_c  33.16000000
_cell_angle_alpha  90.00000000
_cell_angle_beta   90.00000000
_cell_angle_gamma  120.00000000


_symmetry_space_group_name_Hall ' P 1'
_symmetry_space_group_name_H-M  'P 1'
_symmetry_Int_Tables_number     1

loop_
_atom_site_label
_atom_site_type_symbol
_atom_site_forcefield_label
_atom_site_Cartn_x
_atom_site_Cartn_y
_atom_site_Cartn_z
_atom_site_charge
P        P   P      11.16100000  23.11100000  1.58800000  0.00000000
O        O   O      11.06200000  21.40400000  1.60000000  0.00000000
O        O   O      11.50500000  23.67300000  3.16600000  0.00000000
O        O   O      9.67100000  23.76400000  1.06300000  0.00000000
C        C   C      11.58800000  25.10000000  3.15600000  0.00000000
H        H   H      10.65500000  25.50900000  2.82700000  0.00000000
H        H   H      11.80300000  25.45200000  4.14400000  0.00000000
H        H   H      12.36600000  25.40700000  2.49000000  0.00000000
C        C   C      9.38100000  23.29400000 -0.25600000  0.00000000
H        H   H      9.32000000  22.22600000 -0.24900000  0.00000000
H        H   H      8.45000000  23.70300000 -0.58400000  0.00000000
H        H   H      10.16100000  23.60200000 -0.92200000  0.00000000
O        O   O      12.40500000  23.60300000  0.52300000  0.00000000
C        C   C      13.65100000  23.05600000  0.96200000  0.00000000
C        C   C      14.06900000  21.80200000  0.49600000  0.00000000
C        C   C      14.45500000  23.77400000  1.85800000  0.00000000
C        C   C      15.29100000  21.26600000  0.92700000  0.00000000
H        H   H      13.45600000  21.25300000 -0.18700000  0.00000000
C        C   C      15.67700000  23.23900000  2.28700000  0.00000000
H        H   H      14.13600000  24.73200000  2.21300000  0.00000000
C        C   C      16.09400000  21.98500000  1.82200000  0.00000000
H        H   H      15.61100000  20.30900000  0.57200000  0.00000000
H        H   H      16.29000000  23.78800000  2.97200000  0.00000000
N        N   N      17.37500000  21.42300000  2.27300000  0.00000000
O        O   O      18.08600000  22.05700000  3.06500000  0.00000000
O        O   O      17.74500000  20.31600000  1.86300000  0.00000000
