data_Movie_nu1000_modified_1.1.2_100.000000_0.000000_allcomponents

_cell_length_a  39.97000000
_cell_length_b  40.00000000
_cell_length_c  33.16000000
_cell_angle_alpha  90.00000000
_cell_angle_beta   90.00000000
_cell_angle_gamma  120.00000000


_symmetry_space_group_name_Hall ' P 1'
_symmetry_space_group_name_H-M  'P 1'
_symmetry_Int_Tables_number     1

loop_
_atom_site_label
_atom_site_type_symbol
_atom_site_forcefield_label
_atom_site_Cartn_x
_atom_site_Cartn_y
_atom_site_Cartn_z
_atom_site_charge
P        P   P      10.99000000  23.11900000  1.55600000  0.00000000
O        O   O      10.98600000  21.40900000  1.57500000  0.00000000
O        O   O      11.37100000  23.70500000  3.11700000  0.00000000
O        O   O      9.44600000  23.68900000  1.09500000  0.00000000
C        C   C      11.37500000  25.13400000  3.10200000  0.00000000
H        H   H      10.40800000  25.49000000  2.81300000  0.00000000
H        H   H      11.61300000  25.50200000  4.07800000  0.00000000
H        H   H      12.10600000  25.48100000  2.40200000  0.00000000
C        C   C      9.12600000  23.19800000 -0.21000000  0.00000000
H        H   H      9.12300000  22.12800000 -0.19900000  0.00000000
H        H   H      8.16000000  23.55500000 -0.49800000  0.00000000
H        H   H      9.85800000  23.54600000 -0.90900000  0.00000000
O        O   O      12.15900000  23.67400000  0.43700000  0.00000000
C        C   C      13.45100000  23.19800000  0.82400000  0.00000000
C        C   C      13.91700000  21.96600000  0.34200000  0.00000000
C        C   C      14.25200000  23.96200000  1.68300000  0.00000000
C        C   C      15.18300000  21.50000000  0.72100000  0.00000000
H        H   H      13.30500000  21.38200000 -0.31400000  0.00000000
C        C   C      15.51800000  23.49600000  2.06000000  0.00000000
H        H   H      13.89700000  24.90200000  2.05000000  0.00000000
C        C   C      15.98400000  22.26500000  1.57900000  0.00000000
H        H   H      15.53900000  20.56000000  0.35300000  0.00000000
H        H   H      16.13000000  24.08000000  2.71600000  0.00000000
N        N   N      17.31200000  21.77500000  1.97500000  0.00000000
O        O   O      18.01900000  22.45000000  2.73400000  0.00000000
O        O   O      17.72300000  20.68800000  1.55100000  0.00000000
