data_Movie_nu1000_modified_1.1.2_100.000000_0.000000_allcomponents

_cell_length_a  39.97000000
_cell_length_b  40.00000000
_cell_length_c  33.16000000
_cell_angle_alpha  90.00000000
_cell_angle_beta   90.00000000
_cell_angle_gamma  120.00000000


_symmetry_space_group_name_Hall ' P 1'
_symmetry_space_group_name_H-M  'P 1'
_symmetry_Int_Tables_number     1

loop_
_atom_site_label
_atom_site_type_symbol
_atom_site_forcefield_label
_atom_site_Cartn_x
_atom_site_Cartn_y
_atom_site_Cartn_z
_atom_site_charge
P        P   P      10.39900000  23.25100000  1.55600000  0.00000000
O        O   O      10.47900000  21.54500000  1.63400000  0.00000000
O        O   O      10.75700000  23.90900000  3.09400000  0.00000000
O        O   O      8.82700000  23.72800000  1.08400000  0.00000000
C        C   C      10.69000000  25.33500000  3.02900000  0.00000000
H        H   H      9.70600000  25.63300000  2.73300000  0.00000000
H        H   H      10.91400000  25.74800000  3.99100000  0.00000000
H        H   H      11.40100000  25.69400000  2.31400000  0.00000000
C        C   C      8.52700000  23.17700000 -0.20100000  0.00000000
H        H   H      8.57700000  22.11000000 -0.15300000  0.00000000
H        H   H      7.54300000  23.47600000 -0.49700000  0.00000000
H        H   H      9.23800000  23.53600000 -0.91600000  0.00000000
O        O   O      11.53500000  23.82400000  0.41200000  0.00000000
C        C   C      12.85000000  23.42600000  0.80800000  0.00000000
C        C   C      13.37500000  22.20200000  0.36700000  0.00000000
C        C   C      13.61600000  24.25800000  1.63600000  0.00000000
C        C   C      14.66400000  21.81300000  0.75400000  0.00000000
H        H   H      12.79000000  21.56700000 -0.26500000  0.00000000
C        C   C      14.90500000  23.86800000  2.02200000  0.00000000
H        H   H      13.21600000  25.19100000  1.97300000  0.00000000
C        C   C      15.42900000  22.64500000  1.58100000  0.00000000
H        H   H      15.06400000  20.87900000  0.41700000  0.00000000
H        H   H      15.48900000  24.50400000  2.65400000  0.00000000
N        N   N      16.78100000  22.23600000  1.98700000  0.00000000
O        O   O      17.45700000  22.97100000  2.71800000  0.00000000
O        O   O      17.24400000  21.15600000  1.59800000  0.00000000
