data_Movie_nu1000_modified_1.1.2_100.000000_0.000000_allcomponents

_cell_length_a  39.97000000
_cell_length_b  40.00000000
_cell_length_c  33.16000000
_cell_angle_alpha  90.00000000
_cell_angle_beta   90.00000000
_cell_angle_gamma  120.00000000


_symmetry_space_group_name_Hall ' P 1'
_symmetry_space_group_name_H-M  'P 1'
_symmetry_Int_Tables_number     1

loop_
_atom_site_label
_atom_site_type_symbol
_atom_site_forcefield_label
_atom_site_Cartn_x
_atom_site_Cartn_y
_atom_site_Cartn_z
_atom_site_charge
P        P   P      11.19500000  23.11100000  1.68000000  0.00000000
O        O   O      11.04800000  21.40700000  1.68000000  0.00000000
O        O   O      11.61200000  23.64600000  3.24900000  0.00000000
O        O   O      9.70600000  23.81100000  1.21600000  0.00000000
C        C   C      11.73500000  25.07100000  3.25000000  0.00000000
H        H   H      10.80300000  25.50900000  2.95900000  0.00000000
H        H   H      11.99600000  25.40700000  4.23200000  0.00000000
H        H   H      12.49700000  25.36300000  2.55800000  0.00000000
C        C   C      9.35600000  23.36300000 -0.09700000  0.00000000
H        H   H      9.26500000  22.29700000 -0.09700000  0.00000000
H        H   H      8.42500000  23.80200000 -0.38700000  0.00000000
H        H   H      10.11900000  23.65600000 -0.78800000  0.00000000
O        O   O      12.41400000  23.57800000  0.57400000  0.00000000
C        C   C      13.65900000  22.99300000  0.96300000  0.00000000
C        C   C      14.02400000  21.73200000  0.47100000  0.00000000
C        C   C      14.51500000  23.67800000  1.83600000  0.00000000
C        C   C      15.24500000  21.15800000  0.85200000  0.00000000
H        H   H      13.37100000  21.20700000 -0.19500000  0.00000000
C        C   C      15.73500000  23.10500000  2.21600000  0.00000000
H        H   H      14.23600000  24.64100000  2.21200000  0.00000000
C        C   C      16.10000000  21.84500000  1.72400000  0.00000000
H        H   H      15.52400000  20.19600000  0.47600000  0.00000000
H        H   H      16.38800000  23.62900000  2.88200000  0.00000000
N        N   N      17.38000000  21.24200000  2.12300000  0.00000000
O        O   O      18.13600000  21.84800000  2.89400000  0.00000000
O        O   O      17.70300000  20.12900000  1.68900000  0.00000000
