data_Movie_nu1000_modified_1.1.2_100.000000_0.000000_allcomponents

_cell_length_a  39.97000000
_cell_length_b  40.00000000
_cell_length_c  33.16000000
_cell_angle_alpha  90.00000000
_cell_angle_beta   90.00000000
_cell_angle_gamma  120.00000000


_symmetry_space_group_name_Hall ' P 1'
_symmetry_space_group_name_H-M  'P 1'
_symmetry_Int_Tables_number     1

loop_
_atom_site_label
_atom_site_type_symbol
_atom_site_forcefield_label
_atom_site_Cartn_x
_atom_site_Cartn_y
_atom_site_Cartn_z
_atom_site_charge
P        P   P      11.23300000  23.10800000  1.65900000  0.00000000
O        O   O      11.02800000  21.41100000  1.65200000  0.00000000
O        O   O      11.58500000  23.63300000  3.24800000  0.00000000
O        O   O      9.79600000  23.85900000  1.11700000  0.00000000
C        C   C      11.75700000  25.05200000  3.25500000  0.00000000
H        H   H      10.85700000  25.52100000  2.91500000  0.00000000
H        H   H      11.97700000  25.38100000  4.24900000  0.00000000
H        H   H      12.56400000  25.31600000  2.60400000  0.00000000
C        C   C      9.50100000  23.42000000 -0.21200000  0.00000000
H        H   H      9.37200000  22.35800000 -0.21700000  0.00000000
H        H   H      8.60200000  23.89000000 -0.55200000  0.00000000
H        H   H      10.30900000  23.68400000 -0.86200000  0.00000000
O        O   O      12.52400000  23.53100000  0.62000000  0.00000000
C        C   C      13.72600000  22.90300000  1.07400000  0.00000000
C        C   C      14.07300000  21.62900000  0.60300000  0.00000000
C        C   C      14.55700000  23.56100000  1.99000000  0.00000000
C        C   C      15.25100000  21.01500000  1.04800000  0.00000000
H        H   H      13.43700000  21.12600000 -0.09700000  0.00000000
C        C   C      15.73600000  22.94600000  2.43500000  0.00000000
H        H   H      14.29300000  24.53300000  2.35100000  0.00000000
C        C   C      16.08200000  21.67300000  1.96400000  0.00000000
H        H   H      15.51600000  20.04200000  0.68800000  0.00000000
H        H   H      16.37000000  23.44900000  3.13500000  0.00000000
N        N   N      17.31700000  21.02800000  2.43000000  0.00000000
O        O   O      18.05200000  21.60900000  3.24000000  0.00000000
O        O   O      17.62400000  19.90300000  2.01400000  0.00000000
