data_Movie_nu1000_modified_1.1.2_100.000000_0.000000_allcomponents

_cell_length_a  39.97000000
_cell_length_b  40.00000000
_cell_length_c  33.16000000
_cell_angle_alpha  90.00000000
_cell_angle_beta   90.00000000
_cell_angle_gamma  120.00000000


_symmetry_space_group_name_Hall ' P 1'
_symmetry_space_group_name_H-M  'P 1'
_symmetry_Int_Tables_number     1

loop_
_atom_site_label
_atom_site_type_symbol
_atom_site_forcefield_label
_atom_site_Cartn_x
_atom_site_Cartn_y
_atom_site_Cartn_z
_atom_site_charge
P        P   P      11.03500000  23.11900000  1.67300000  0.00000000
O        O   O      10.96100000  21.41100000  1.67600000  0.00000000
O        O   O      11.37100000  23.67700000  3.25400000  0.00000000
O        O   O      9.53600000  23.75400000  1.15100000  0.00000000
C        C   C      11.43300000  25.10500000  3.25300000  0.00000000
H        H   H      10.49500000  25.50200000  2.92600000  0.00000000
H        H   H      11.64300000  25.45500000  4.24200000  0.00000000
H        H   H      12.20800000  25.42800000  2.58900000  0.00000000
C        C   C      9.25400000  23.28800000 -0.17100000  0.00000000
H        H   H      9.20800000  22.21900000 -0.17000000  0.00000000
H        H   H      8.31700000  23.68500000 -0.49700000  0.00000000
H        H   H      10.03000000  23.61000000 -0.83500000  0.00000000
O        O   O      12.27300000  23.63500000  0.61100000  0.00000000
C        C   C      13.52700000  23.10400000  1.04800000  0.00000000
C        C   C      13.96300000  21.85800000  0.57600000  0.00000000
C        C   C      14.32000000  23.82800000  1.94800000  0.00000000
C        C   C      15.19200000  21.33800000  1.00400000  0.00000000
H        H   H      13.35700000  21.30400000 -0.11200000  0.00000000
C        C   C      15.54900000  23.30800000  2.37500000  0.00000000
H        H   H      13.98700000  24.77900000  2.30900000  0.00000000
C        C   C      15.98500000  22.06300000  1.90400000  0.00000000
H        H   H      15.52500000  20.38700000  0.64300000  0.00000000
H        H   H      16.15400000  23.86100000  3.06300000  0.00000000
N        N   N      17.27300000  21.51700000  2.35200000  0.00000000
O        O   O      17.97400000  22.15700000  3.14800000  0.00000000
O        O   O      17.65900000  20.41700000  1.93500000  0.00000000
