data_Movie_nu1000_modified_1.1.2_100.000000_0.000000_allcomponents

_cell_length_a  39.97000000
_cell_length_b  40.00000000
_cell_length_c  33.16000000
_cell_angle_alpha  90.00000000
_cell_angle_beta   90.00000000
_cell_angle_gamma  120.00000000


_symmetry_space_group_name_Hall ' P 1'
_symmetry_space_group_name_H-M  'P 1'
_symmetry_Int_Tables_number     1

loop_
_atom_site_label
_atom_site_type_symbol
_atom_site_forcefield_label
_atom_site_Cartn_x
_atom_site_Cartn_y
_atom_site_Cartn_z
_atom_site_charge
P        P   P      11.19500000  23.11100000  1.76000000  0.00000000
O        O   O      11.04900000  21.40700000  1.75100000  0.00000000
O        O   O      11.51900000  23.64600000  3.35100000  0.00000000
O        O   O      9.73600000  23.81100000  1.20900000  0.00000000
C        C   C      11.64200000  25.07100000  3.35900000  0.00000000
H        H   H      10.72800000  25.50900000  3.01400000  0.00000000
H        H   H      11.84500000  25.40700000  4.35400000  0.00000000
H        H   H      12.44300000  25.36300000  2.71300000  0.00000000
C        C   C      9.46400000  23.36300000 -0.12200000  0.00000000
H        H   H      9.37200000  22.29700000 -0.12800000  0.00000000
H        H   H      8.55100000  23.80200000 -0.46600000  0.00000000
H        H   H      10.26600000  23.65600000 -0.76700000  0.00000000
O        O   O      12.47600000  23.57800000  0.72800000  0.00000000
C        C   C      13.69600000  22.99300000  1.18900000  0.00000000
C        C   C      14.09000000  21.73200000  0.71900000  0.00000000
C        C   C      14.50000000  23.67800000  2.11000000  0.00000000
C        C   C      15.28600000  21.15800000  1.17100000  0.00000000
H        H   H      13.47700000  21.20700000  0.01600000  0.00000000
C        C   C      15.69600000  23.10500000  2.56100000  0.00000000
H        H   H      14.19900000  24.64100000  2.46900000  0.00000000
C        C   C      16.08900000  21.84500000  2.09200000  0.00000000
H        H   H      15.58700000  20.19600000  0.81200000  0.00000000
H        H   H      16.30800000  23.62900000  3.26500000  0.00000000
N        N   N      17.34300000  21.24200000  2.56500000  0.00000000
O        O   O      18.05300000  21.84800000  3.37900000  0.00000000
O        O   O      17.69100000  20.12900000  2.15100000  0.00000000
